<?xml version="1.0" encoding="UTF-8"?>

<!-- generated on 05/04/18 13:40:38 by SUMO netconvert Version 0.30.0
<?xml version="1.0" encoding="UTF-8"?>

<configuration xmlns:xsi="http://www.w3.org/2001/XMLSchema-instance" xsi:noNamespaceSchemaLocation="http://sumo.dlr.de/xsd/netconvertConfiguration.xsd">

    <input>
        <osm-files value="mapedit.osm"/>
    </input>

    <output>
        <output-file value="home.net.xml"/>
    </output>

    <projection>
        <proj.utm value="true"/>
    </projection>

    <tls_building>
        <tls.discard-simple value="true"/>
        <tls.join value="true"/>
        <tls.guess-signals value="true"/>
    </tls_building>

    <ramp_guessing>
        <ramps.guess value="true"/>
    </ramp_guessing>

    <processing>
        <geometry.remove value="true"/>
        <roundabouts.guess value="true"/>
        <junctions.join value="true"/>
    </processing>

</configuration>
-->

<net version="0.27" xmlns:xsi="http://www.w3.org/2001/XMLSchema-instance" xsi:noNamespaceSchemaLocation="http://sumo.dlr.de/xsd/net_file.xsd">

    <location netOffset="-378461.40,-3731463.98" convBoundary="0.00,0.00,2824.33,2401.15" origBoundary="-118.311902,33.716282,-118.281412,33.737916" projParameter="+proj=utm +zone=11 +ellps=WGS84 +datum=WGS84 +units=m +no_defs"/>

    <type id="highway.bridleway" priority="1" numLanes="1" speed="2.78" allow="pedestrian" oneway="1" width="2.00"/>
    <type id="highway.bus_guideway" priority="1" numLanes="1" speed="8.33" allow="bus" oneway="1"/>
    <type id="highway.cycleway" priority="1" numLanes="1" speed="5.56" allow="bicycle" oneway="0" width="1.00"/>
    <type id="highway.footway" priority="1" numLanes="1" speed="2.78" allow="pedestrian" oneway="1" width="2.00"/>
    <type id="highway.ford" priority="1" numLanes="1" speed="2.78" allow="army" oneway="0"/>
    <type id="highway.living_street" priority="3" numLanes="1" speed="2.78" disallow="tram rail_urban rail rail_electric ship" oneway="0"/>
    <type id="highway.motorway" priority="13" numLanes="2" speed="44.44" allow="private emergency authority army vip passenger hov taxi bus coach delivery truck trailer motorcycle evehicle custom1 custom2" oneway="1"/>
    <type id="highway.motorway_link" priority="12" numLanes="1" speed="22.22" allow="private emergency authority army vip passenger hov taxi bus coach delivery truck trailer motorcycle evehicle custom1 custom2" oneway="1"/>
    <type id="highway.path" priority="1" numLanes="1" speed="2.78" allow="bicycle pedestrian" oneway="1" width="2.00"/>
    <type id="highway.pedestrian" priority="1" numLanes="1" speed="2.78" allow="pedestrian" oneway="1" width="2.00"/>
    <type id="highway.primary" priority="9" numLanes="2" speed="27.78" disallow="tram rail_urban rail rail_electric ship" oneway="0"/>
    <type id="highway.primary_link" priority="8" numLanes="1" speed="22.22" disallow="tram rail_urban rail rail_electric ship" oneway="0"/>
    <type id="highway.raceway" priority="14" numLanes="2" speed="83.33" allow="vip" oneway="0"/>
    <type id="highway.residential" priority="4" numLanes="1" speed="13.89" disallow="tram rail_urban rail rail_electric ship" oneway="0"/>
    <type id="highway.secondary" priority="7" numLanes="2" speed="27.78" disallow="tram rail_urban rail rail_electric ship" oneway="0"/>
    <type id="highway.secondary_link" priority="6" numLanes="1" speed="22.22" disallow="tram rail_urban rail rail_electric ship" oneway="0"/>
    <type id="highway.service" priority="2" numLanes="1" speed="5.56" allow="delivery bicycle pedestrian" oneway="0"/>
    <type id="highway.services" priority="1" numLanes="1" speed="8.33" disallow="tram rail_urban rail rail_electric ship" oneway="0"/>
    <type id="highway.stairs" priority="1" numLanes="1" speed="1.39" allow="pedestrian" oneway="1" width="2.00"/>
    <type id="highway.step" priority="1" numLanes="1" speed="1.39" allow="pedestrian" oneway="1" width="2.00"/>
    <type id="highway.steps" priority="1" numLanes="1" speed="1.39" allow="pedestrian" oneway="1" width="2.00"/>
    <type id="highway.tertiary" priority="6" numLanes="1" speed="22.22" disallow="tram rail_urban rail rail_electric ship" oneway="0"/>
    <type id="highway.tertiary_link" priority="5" numLanes="1" speed="22.22" disallow="tram rail_urban rail rail_electric ship" oneway="0"/>
    <type id="highway.track" priority="1" numLanes="1" speed="5.56" disallow="tram rail_urban rail rail_electric ship" oneway="0"/>
    <type id="highway.trunk" priority="11" numLanes="2" speed="27.78" disallow="tram rail_urban rail rail_electric bicycle pedestrian ship" oneway="0"/>
    <type id="highway.trunk_link" priority="10" numLanes="1" speed="22.22" disallow="tram rail_urban rail rail_electric bicycle pedestrian ship" oneway="0"/>
    <type id="highway.unclassified" priority="5" numLanes="1" speed="13.89" disallow="tram rail_urban rail rail_electric ship" oneway="0"/>
    <type id="highway.unsurfaced" priority="1" numLanes="1" speed="8.33" disallow="tram rail_urban rail rail_electric ship" oneway="0"/>
    <type id="railway.light_rail" priority="15" numLanes="1" speed="27.78" allow="rail_urban" oneway="1"/>
    <type id="railway.preserved" priority="15" numLanes="1" speed="27.78" allow="rail" oneway="1"/>
    <type id="railway.rail" priority="15" numLanes="1" speed="83.33" allow="rail rail_electric" oneway="1"/>
    <type id="railway.subway" priority="15" numLanes="1" speed="27.78" allow="rail_urban" oneway="1"/>
    <type id="railway.tram" priority="15" numLanes="1" speed="13.89" allow="tram" oneway="1"/>

    <edge id=":122623184_0" function="internal">
        <lane id=":122623184_0_0" index="0" disallow="tram rail_urban rail rail_electric ship" speed="13.89" length="4.82" shape="601.05,2397.67 600.25,2398.93 599.44,2399.36 598.60,2398.97 597.75,2397.75"/>
    </edge>
    <edge id=":122623198_0" function="internal">
        <lane id=":122623198_0_0" index="0" disallow="tram rail_urban rail rail_electric ship" speed="13.89" length="5.12" shape="583.39,1599.64 583.16,1598.25 582.54,1597.27 581.54,1596.68 580.16,1596.49"/>
    </edge>
    <edge id=":122623198_1" function="internal">
        <lane id=":122623198_1_0" index="0" disallow="tram rail_urban rail rail_electric ship" speed="13.89" length="9.58" shape="583.39,1599.64 583.21,1590.06"/>
    </edge>
    <edge id=":122623198_2" function="internal">
        <lane id=":122623198_2_0" index="0" disallow="tram rail_urban rail rail_electric ship" speed="13.89" length="10.38" shape="583.39,1599.64 583.72,1596.81 584.88,1594.77 586.87,1593.54 589.69,1593.10"/>
    </edge>
    <edge id=":122623198_3" function="internal">
        <lane id=":122623198_3_0" index="0" disallow="tram rail_urban rail rail_electric ship" speed="13.89" length="4.82" shape="583.39,1599.64 584.18,1598.38 585.00,1597.95 585.83,1598.34 586.69,1599.56"/>
    </edge>
    <edge id=":122623198_4" function="internal">
        <lane id=":122623198_4_0" index="0" disallow="tram rail_urban rail rail_electric ship" speed="13.89" length="5.01" shape="589.73,1596.40 588.37,1596.61 587.41,1597.21 586.85,1598.19 586.69,1599.56"/>
    </edge>
    <edge id=":122623198_5" function="internal">
        <lane id=":122623198_5_0" index="0" disallow="tram rail_urban rail rail_electric ship" speed="13.89" length="9.57" shape="589.73,1596.40 580.16,1596.49"/>
    </edge>
    <edge id=":122623198_6" function="internal">
        <lane id=":122623198_6_0" index="0" disallow="tram rail_urban rail rail_electric ship" speed="13.89" length="5.32" shape="589.73,1596.40 586.91,1596.03 584.88,1594.85 584.81,1594.75"/>
    </edge>
    <edge id=":122623198_7" function="internal">
        <lane id=":122623198_7_0" index="0" disallow="tram rail_urban rail rail_electric ship" speed="13.89" length="2.41" shape="589.73,1596.40 588.48,1595.59 588.06,1594.77"/>
    </edge>
    <edge id=":122623198_16" function="internal">
        <lane id=":122623198_16_0" index="0" speed="13.89" length="5.05" shape="584.81,1594.75 583.65,1592.86 583.21,1590.06"/>
    </edge>
    <edge id=":122623198_17" function="internal">
        <lane id=":122623198_17_0" index="0" speed="13.89" length="2.41" shape="588.06,1594.77 588.46,1593.94 589.69,1593.10"/>
    </edge>
    <edge id=":122623198_8" function="internal">
        <lane id=":122623198_8_0" index="0" disallow="tram rail_urban rail rail_electric ship" speed="13.89" length="5.05" shape="586.51,1590.02 586.72,1591.38 587.32,1592.35 588.31,1592.92 589.69,1593.10"/>
    </edge>
    <edge id=":122623198_9" function="internal">
        <lane id=":122623198_9_0" index="0" disallow="tram rail_urban rail rail_electric ship" speed="13.89" length="9.54" shape="586.51,1590.02 586.69,1599.56"/>
    </edge>
    <edge id=":122623198_10" function="internal">
        <lane id=":122623198_10_0" index="0" disallow="tram rail_urban rail rail_electric ship" speed="13.89" length="10.35" shape="586.51,1590.02 586.14,1592.83 584.96,1594.85 582.97,1596.07 580.16,1596.49"/>
    </edge>
    <edge id=":122623198_11" function="internal">
        <lane id=":122623198_11_0" index="0" disallow="tram rail_urban rail rail_electric ship" speed="13.89" length="4.82" shape="586.51,1590.02 585.70,1591.27 584.88,1591.69 584.05,1591.29 583.21,1590.06"/>
    </edge>
    <edge id=":122623198_12" function="internal">
        <lane id=":122623198_12_0" index="0" disallow="tram rail_urban rail rail_electric ship" speed="13.89" length="5.01" shape="580.14,1593.19 581.50,1592.99 582.46,1592.40 583.03,1591.42 583.21,1590.06"/>
    </edge>
    <edge id=":122623198_13" function="internal">
        <lane id=":122623198_13_0" index="0" disallow="tram rail_urban rail rail_electric ship" speed="13.89" length="9.55" shape="580.14,1593.19 589.69,1593.10"/>
    </edge>
    <edge id=":122623198_14" function="internal">
        <lane id=":122623198_14_0" index="0" disallow="tram rail_urban rail rail_electric ship" speed="13.89" length="5.18" shape="580.14,1593.19 582.94,1593.57 584.97,1594.76"/>
    </edge>
    <edge id=":122623198_15" function="internal">
        <lane id=":122623198_15_0" index="0" disallow="tram rail_urban rail rail_electric ship" speed="13.89" length="2.41" shape="580.14,1593.19 581.38,1594.01 581.80,1594.83"/>
    </edge>
    <edge id=":122623198_18" function="internal">
        <lane id=":122623198_18_0" index="0" speed="13.89" length="5.19" shape="584.97,1594.76 586.22,1596.76 586.69,1599.56"/>
    </edge>
    <edge id=":122623198_19" function="internal">
        <lane id=":122623198_19_0" index="0" speed="13.89" length="2.41" shape="581.80,1594.83 581.39,1595.66 580.16,1596.49"/>
    </edge>
    <edge id=":122623199_0" function="internal">
        <lane id=":122623199_0_0" index="0" disallow="tram rail_urban rail rail_electric ship" speed="13.89" length="5.02" shape="582.05,1498.55 581.84,1497.19 581.24,1496.23 580.25,1495.68 578.88,1495.53"/>
    </edge>
    <edge id=":122623199_1" function="internal">
        <lane id=":122623199_1_0" index="0" disallow="tram rail_urban rail rail_electric ship" speed="13.89" length="9.56" shape="582.05,1498.55 581.92,1489.00"/>
    </edge>
    <edge id=":122623199_2" function="internal">
        <lane id=":122623199_2_0" index="0" disallow="tram rail_urban rail rail_electric ship" speed="13.89" length="5.32" shape="582.05,1498.55 582.41,1495.72 583.59,1493.68 583.68,1493.63"/>
    </edge>
    <edge id=":122623199_3" function="internal">
        <lane id=":122623199_3_0" index="0" disallow="tram rail_urban rail rail_electric ship" speed="13.89" length="2.41" shape="582.05,1498.55 582.86,1497.31 583.68,1496.88"/>
    </edge>
    <edge id=":122623199_16" function="internal">
        <lane id=":122623199_16_0" index="0" speed="13.89" length="5.06" shape="583.68,1493.63 585.57,1492.44 588.36,1492.00"/>
    </edge>
    <edge id=":122623199_17" function="internal">
        <lane id=":122623199_17_0" index="0" speed="13.89" length="2.41" shape="583.68,1496.88 584.51,1497.29 585.35,1498.51"/>
    </edge>
    <edge id=":122623199_4" function="internal">
        <lane id=":122623199_4_0" index="0" disallow="tram rail_urban rail rail_electric ship" speed="13.89" length="5.06" shape="588.41,1495.30 587.05,1495.52 586.09,1496.13 585.53,1497.12 585.35,1498.51"/>
    </edge>
    <edge id=":122623199_5" function="internal">
        <lane id=":122623199_5_0" index="0" disallow="tram rail_urban rail rail_electric ship" speed="13.89" length="9.53" shape="588.41,1495.30 578.88,1495.53"/>
    </edge>
    <edge id=":122623199_6" function="internal">
        <lane id=":122623199_6_0" index="0" disallow="tram rail_urban rail rail_electric ship" speed="13.89" length="5.16" shape="588.41,1495.30 585.60,1494.94 583.59,1493.77"/>
    </edge>
    <edge id=":122623199_7" function="internal">
        <lane id=":122623199_7_0" index="0" disallow="tram rail_urban rail rail_electric ship" speed="13.89" length="2.41" shape="588.41,1495.30 587.16,1494.49 586.74,1493.67"/>
    </edge>
    <edge id=":122623199_18" function="internal">
        <lane id=":122623199_18_0" index="0" speed="13.89" length="5.16" shape="583.59,1493.77 582.36,1491.79 581.92,1489.00"/>
    </edge>
    <edge id=":122623199_19" function="internal">
        <lane id=":122623199_19_0" index="0" speed="13.89" length="2.41" shape="586.74,1493.67 587.14,1492.84 588.36,1492.00"/>
    </edge>
    <edge id=":122623199_8" function="internal">
        <lane id=":122623199_8_0" index="0" disallow="tram rail_urban rail rail_electric ship" speed="13.89" length="5.00" shape="585.22,1488.95 585.43,1490.30 586.03,1491.26 587.00,1491.83 588.36,1492.00"/>
    </edge>
    <edge id=":122623199_9" function="internal">
        <lane id=":122623199_9_0" index="0" disallow="tram rail_urban rail rail_electric ship" speed="13.89" length="9.57" shape="585.22,1488.95 585.35,1498.51"/>
    </edge>
    <edge id=":122623199_10" function="internal">
        <lane id=":122623199_10_0" index="0" disallow="tram rail_urban rail rail_electric ship" speed="13.89" length="5.28" shape="585.22,1488.95 584.86,1491.75 583.68,1493.77 583.58,1493.83"/>
    </edge>
    <edge id=":122623199_11" function="internal">
        <lane id=":122623199_11_0" index="0" disallow="tram rail_urban rail rail_electric ship" speed="13.89" length="2.41" shape="585.22,1488.95 584.41,1490.20 583.59,1490.62"/>
    </edge>
    <edge id=":122623199_20" function="internal">
        <lane id=":122623199_20_0" index="0" speed="13.89" length="5.10" shape="583.58,1493.83 581.69,1495.03 578.88,1495.53"/>
    </edge>
    <edge id=":122623199_21" function="internal">
        <lane id=":122623199_21_0" index="0" speed="13.89" length="2.41" shape="583.59,1490.62 582.76,1490.22 581.92,1489.00"/>
    </edge>
    <edge id=":122623199_12" function="internal">
        <lane id=":122623199_12_0" index="0" disallow="tram rail_urban rail rail_electric ship" speed="13.89" length="5.12" shape="578.77,1492.23 580.16,1491.99 581.15,1491.37 581.74,1490.37 581.92,1489.00"/>
    </edge>
    <edge id=":122623199_13" function="internal">
        <lane id=":122623199_13_0" index="0" disallow="tram rail_urban rail rail_electric ship" speed="13.89" length="9.60" shape="578.77,1492.23 588.36,1492.00"/>
    </edge>
    <edge id=":122623199_14" function="internal">
        <lane id=":122623199_14_0" index="0" disallow="tram rail_urban rail rail_electric ship" speed="13.89" length="5.36" shape="578.77,1492.23 581.62,1492.54 583.66,1493.69 583.74,1493.81"/>
    </edge>
    <edge id=":122623199_15" function="internal">
        <lane id=":122623199_15_0" index="0" disallow="tram rail_urban rail rail_electric ship" speed="13.89" length="2.41" shape="578.77,1492.23 580.03,1493.01 580.47,1493.82"/>
    </edge>
    <edge id=":122623199_22" function="internal">
        <lane id=":122623199_22_0" index="0" speed="13.89" length="5.07" shape="583.74,1493.81 584.91,1495.68 585.35,1498.51"/>
    </edge>
    <edge id=":122623199_23" function="internal">
        <lane id=":122623199_23_0" index="0" speed="13.89" length="2.41" shape="580.47,1493.82 580.09,1494.66 578.88,1495.53"/>
    </edge>
    <edge id=":122623201_0" function="internal">
        <lane id=":122623201_0_0" index="0" disallow="tram rail_urban rail rail_electric ship" speed="13.89" length="5.01" shape="580.53,1398.43 580.31,1397.07 579.71,1396.11 578.73,1395.55 577.37,1395.38"/>
    </edge>
    <edge id=":122623201_1" function="internal">
        <lane id=":122623201_1_0" index="0" disallow="tram rail_urban rail rail_electric ship" speed="13.89" length="9.51" shape="580.53,1398.43 580.35,1388.92"/>
    </edge>
    <edge id=":122623201_2" function="internal">
        <lane id=":122623201_2_0" index="0" disallow="tram rail_urban rail rail_electric ship" speed="13.89" length="5.17" shape="580.53,1398.43 580.88,1395.62 582.05,1393.60"/>
    </edge>
    <edge id=":122623201_3" function="internal">
        <lane id=":122623201_3_0" index="0" disallow="tram rail_urban rail rail_electric ship" speed="13.89" length="2.41" shape="580.53,1398.43 581.33,1397.18 582.15,1396.75"/>
    </edge>
    <edge id=":122623201_16" function="internal">
        <lane id=":122623201_16_0" index="0" speed="13.89" length="5.16" shape="582.05,1393.60 584.03,1392.36 586.82,1391.91"/>
    </edge>
    <edge id=":122623201_17" function="internal">
        <lane id=":122623201_17_0" index="0" speed="13.89" length="2.41" shape="582.15,1396.75 582.98,1397.15 583.83,1398.38"/>
    </edge>
    <edge id=":122623201_4" function="internal">
        <lane id=":122623201_4_0" index="0" disallow="tram rail_urban rail rail_electric ship" speed="13.89" length="5.01" shape="586.87,1395.21 585.52,1395.43 584.56,1396.03 584.00,1397.01 583.83,1398.38"/>
    </edge>
    <edge id=":122623201_5" function="internal">
        <lane id=":122623201_5_0" index="0" disallow="tram rail_urban rail rail_electric ship" speed="13.89" length="9.51" shape="586.87,1395.21 577.37,1395.38"/>
    </edge>
    <edge id=":122623201_6" function="internal">
        <lane id=":122623201_6_0" index="0" disallow="tram rail_urban rail rail_electric ship" speed="13.89" length="5.27" shape="586.87,1395.21 584.07,1394.86 582.05,1393.70 581.99,1393.60"/>
    </edge>
    <edge id=":122623201_7" function="internal">
        <lane id=":122623201_7_0" index="0" disallow="tram rail_urban rail rail_electric ship" speed="13.89" length="2.41" shape="586.87,1395.21 585.62,1394.41 585.20,1393.59"/>
    </edge>
    <edge id=":122623201_18" function="internal">
        <lane id=":122623201_18_0" index="0" speed="13.89" length="5.06" shape="581.99,1393.60 580.81,1391.71 580.35,1388.92"/>
    </edge>
    <edge id=":122623201_19" function="internal">
        <lane id=":122623201_19_0" index="0" speed="13.89" length="2.41" shape="585.20,1393.59 585.59,1392.76 586.82,1391.91"/>
    </edge>
    <edge id=":122623201_8" function="internal">
        <lane id=":122623201_8_0" index="0" disallow="tram rail_urban rail rail_electric ship" speed="13.89" length="5.03" shape="583.65,1388.85 583.87,1390.21 584.47,1391.17 585.46,1391.74 586.82,1391.91"/>
    </edge>
    <edge id=":122623201_9" function="internal">
        <lane id=":122623201_9_0" index="0" disallow="tram rail_urban rail rail_electric ship" speed="13.89" length="9.53" shape="583.65,1388.85 583.83,1398.38"/>
    </edge>
    <edge id=":122623201_10" function="internal">
        <lane id=":122623201_10_0" index="0" disallow="tram rail_urban rail rail_electric ship" speed="13.89" length="5.30" shape="583.65,1388.85 583.31,1391.66 582.15,1393.69 582.04,1393.76"/>
    </edge>
    <edge id=":122623201_11" function="internal">
        <lane id=":122623201_11_0" index="0" disallow="tram rail_urban rail rail_electric ship" speed="13.89" length="2.41" shape="583.65,1388.85 582.85,1390.10 582.03,1390.53"/>
    </edge>
    <edge id=":122623201_20" function="internal">
        <lane id=":122623201_20_0" index="0" speed="13.89" length="5.04" shape="582.04,1393.76 580.17,1394.93 577.37,1395.38"/>
    </edge>
    <edge id=":122623201_21" function="internal">
        <lane id=":122623201_21_0" index="0" speed="13.89" length="2.41" shape="582.03,1390.53 581.20,1390.14 580.35,1388.92"/>
    </edge>
    <edge id=":122623201_12" function="internal">
        <lane id=":122623201_12_0" index="0" disallow="tram rail_urban rail rail_electric ship" speed="13.89" length="5.01" shape="577.31,1392.08 578.66,1391.86 579.62,1391.26 580.18,1390.28 580.35,1388.92"/>
    </edge>
    <edge id=":122623201_13" function="internal">
        <lane id=":122623201_13_0" index="0" disallow="tram rail_urban rail rail_electric ship" speed="13.89" length="9.51" shape="577.31,1392.08 586.82,1391.91"/>
    </edge>
    <edge id=":122623201_14" function="internal">
        <lane id=":122623201_14_0" index="0" disallow="tram rail_urban rail rail_electric ship" speed="13.89" length="5.29" shape="577.31,1392.08 580.12,1392.43 582.15,1393.60 582.21,1393.69"/>
    </edge>
    <edge id=":122623201_15" function="internal">
        <lane id=":122623201_15_0" index="0" disallow="tram rail_urban rail rail_electric ship" speed="13.89" length="2.41" shape="577.31,1392.08 578.56,1392.88 578.99,1393.70"/>
    </edge>
    <edge id=":122623201_22" function="internal">
        <lane id=":122623201_22_0" index="0" speed="13.89" length="5.05" shape="582.21,1393.69 583.38,1395.58 583.83,1398.38"/>
    </edge>
    <edge id=":122623201_23" function="internal">
        <lane id=":122623201_23_0" index="0" speed="13.89" length="2.41" shape="578.99,1393.70 578.59,1394.53 577.37,1395.38"/>
    </edge>
    <edge id=":122623204_0" function="internal">
        <lane id=":122623204_0_0" index="0" disallow="tram rail_urban rail rail_electric ship" speed="13.89" length="5.02" shape="578.28,1296.21 578.06,1294.84 577.46,1293.87 576.48,1293.30 575.12,1293.13"/>
    </edge>
    <edge id=":122623204_1" function="internal">
        <lane id=":122623204_1_0" index="0" disallow="tram rail_urban rail rail_electric ship" speed="13.89" length="9.61" shape="578.28,1296.21 578.18,1286.59"/>
    </edge>
    <edge id=":122623204_2" function="internal">
        <lane id=":122623204_2_0" index="0" disallow="tram rail_urban rail rail_electric ship" speed="13.89" length="5.34" shape="578.28,1296.21 578.62,1293.39 579.79,1291.36 579.93,1291.27"/>
    </edge>
    <edge id=":122623204_3" function="internal">
        <lane id=":122623204_3_0" index="0" disallow="tram rail_urban rail rail_electric ship" speed="13.89" length="2.41" shape="578.28,1296.21 579.08,1294.95 579.90,1294.52"/>
    </edge>
    <edge id=":122623204_16" function="internal">
        <lane id=":122623204_16_0" index="0" speed="13.89" length="5.04" shape="579.93,1291.27 581.79,1290.12 584.61,1289.67"/>
    </edge>
    <edge id=":122623204_17" function="internal">
        <lane id=":122623204_17_0" index="0" speed="13.89" length="2.41" shape="579.90,1294.52 580.73,1294.91 581.58,1296.13"/>
    </edge>
    <edge id=":122623204_4" function="internal">
        <lane id=":122623204_4_0" index="0" disallow="tram rail_urban rail rail_electric ship" speed="13.89" length="5.04" shape="584.66,1292.97 583.29,1293.19 582.32,1293.79 581.75,1294.77 581.58,1296.13"/>
    </edge>
    <edge id=":122623204_5" function="internal">
        <lane id=":122623204_5_0" index="0" disallow="tram rail_urban rail rail_electric ship" speed="13.89" length="9.54" shape="584.66,1292.97 575.12,1293.13"/>
    </edge>
    <edge id=":122623204_6" function="internal">
        <lane id=":122623204_6_0" index="0" disallow="tram rail_urban rail rail_electric ship" speed="13.89" length="5.21" shape="584.66,1292.97 581.82,1292.61 579.80,1291.43"/>
    </edge>
    <edge id=":122623204_7" function="internal">
        <lane id=":122623204_7_0" index="0" disallow="tram rail_urban rail rail_electric ship" speed="13.89" length="2.41" shape="584.66,1292.97 583.41,1292.17 582.98,1291.35"/>
    </edge>
    <edge id=":122623204_18" function="internal">
        <lane id=":122623204_18_0" index="0" speed="13.89" length="5.21" shape="579.80,1291.43 578.58,1289.42 578.18,1286.59"/>
    </edge>
    <edge id=":122623204_19" function="internal">
        <lane id=":122623204_19_0" index="0" speed="13.89" length="2.41" shape="582.98,1291.35 583.38,1290.52 584.61,1289.67"/>
    </edge>
    <edge id=":122623204_8" function="internal">
        <lane id=":122623204_8_0" index="0" disallow="tram rail_urban rail rail_electric ship" speed="13.89" length="5.02" shape="581.48,1286.60 581.68,1287.96 582.26,1288.93 583.24,1289.50 584.61,1289.67"/>
    </edge>
    <edge id=":122623204_9" function="internal">
        <lane id=":122623204_9_0" index="0" disallow="tram rail_urban rail rail_electric ship" speed="13.89" length="9.54" shape="581.48,1286.60 581.58,1296.13"/>
    </edge>
    <edge id=":122623204_10" function="internal">
        <lane id=":122623204_10_0" index="0" disallow="tram rail_urban rail rail_electric ship" speed="13.89" length="5.20" shape="581.48,1286.60 581.08,1289.41 579.89,1291.44"/>
    </edge>
    <edge id=":122623204_11" function="internal">
        <lane id=":122623204_11_0" index="0" disallow="tram rail_urban rail rail_electric ship" speed="13.89" length="2.41" shape="581.48,1286.60 580.66,1287.83 579.83,1288.24"/>
    </edge>
    <edge id=":122623204_20" function="internal">
        <lane id=":122623204_20_0" index="0" speed="13.89" length="5.16" shape="579.89,1291.44 577.90,1292.68 575.12,1293.13"/>
    </edge>
    <edge id=":122623204_21" function="internal">
        <lane id=":122623204_21_0" index="0" speed="13.89" length="2.41" shape="579.83,1288.24 579.01,1287.83 578.18,1286.59"/>
    </edge>
    <edge id=":122623204_12" function="internal">
        <lane id=":122623204_12_0" index="0" disallow="tram rail_urban rail rail_electric ship" speed="13.89" length="5.10" shape="575.07,1289.83 576.43,1289.61 577.40,1288.99 577.99,1287.99 578.18,1286.59"/>
    </edge>
    <edge id=":122623204_13" function="internal">
        <lane id=":122623204_13_0" index="0" disallow="tram rail_urban rail rail_electric ship" speed="13.89" length="9.54" shape="575.07,1289.83 584.61,1289.67"/>
    </edge>
    <edge id=":122623204_14" function="internal">
        <lane id=":122623204_14_0" index="0" disallow="tram rail_urban rail rail_electric ship" speed="13.89" length="5.27" shape="575.07,1289.83 577.86,1290.18 579.88,1291.35 579.94,1291.45"/>
    </edge>
    <edge id=":122623204_15" function="internal">
        <lane id=":122623204_15_0" index="0" disallow="tram rail_urban rail rail_electric ship" speed="13.89" length="2.41" shape="575.07,1289.83 576.32,1290.63 576.75,1291.45"/>
    </edge>
    <edge id=":122623204_22" function="internal">
        <lane id=":122623204_22_0" index="0" speed="13.89" length="5.06" shape="579.94,1291.45 581.12,1293.34 581.58,1296.13"/>
    </edge>
    <edge id=":122623204_23" function="internal">
        <lane id=":122623204_23_0" index="0" speed="13.89" length="2.41" shape="576.75,1291.45 576.35,1292.28 575.12,1293.13"/>
    </edge>
    <edge id=":122623207_0" function="internal">
        <lane id=":122623207_0_0" index="0" disallow="tram rail_urban rail rail_electric ship" speed="13.89" length="5.02" shape="578.27,1196.78 578.07,1195.41 577.49,1194.45 576.51,1193.87 575.14,1193.70"/>
    </edge>
    <edge id=":122623207_1" function="internal">
        <lane id=":122623207_1_0" index="0" disallow="tram rail_urban rail rail_electric ship" speed="13.89" length="9.55" shape="578.27,1196.78 578.14,1187.23"/>
    </edge>
    <edge id=":122623207_2" function="internal">
        <lane id=":122623207_2_0" index="0" disallow="tram rail_urban rail rail_electric ship" speed="13.89" length="10.33" shape="578.27,1196.78 578.67,1193.96 579.86,1191.93 581.84,1190.70 584.61,1190.27"/>
    </edge>
    <edge id=":122623207_3" function="internal">
        <lane id=":122623207_3_0" index="0" disallow="tram rail_urban rail rail_electric ship" speed="13.89" length="4.82" shape="578.27,1196.78 579.09,1195.54 579.92,1195.13 580.74,1195.54 581.57,1196.78"/>
    </edge>
    <edge id=":122623207_4" function="internal">
        <lane id=":122623207_4_0" index="0" disallow="tram rail_urban rail rail_electric ship" speed="13.89" length="5.06" shape="584.65,1193.57 583.30,1193.78 582.34,1194.39 581.76,1195.39 581.57,1196.78"/>
    </edge>
    <edge id=":122623207_5" function="internal">
        <lane id=":122623207_5_0" index="0" disallow="tram rail_urban rail rail_electric ship" speed="13.89" length="9.51" shape="584.65,1193.57 575.14,1193.70"/>
    </edge>
    <edge id=":122623207_6" function="internal">
        <lane id=":122623207_6_0" index="0" disallow="tram rail_urban rail rail_electric ship" speed="13.89" length="5.24" shape="584.65,1193.57 581.87,1193.20 579.86,1192.02 579.80,1191.93"/>
    </edge>
    <edge id=":122623207_7" function="internal">
        <lane id=":122623207_7_0" index="0" disallow="tram rail_urban rail rail_electric ship" speed="13.89" length="2.41" shape="584.65,1193.57 583.40,1192.76 582.98,1191.94"/>
    </edge>
    <edge id=":122623207_16" function="internal">
        <lane id=":122623207_16_0" index="0" speed="13.89" length="5.08" shape="579.80,1191.93 578.61,1190.03 578.14,1187.23"/>
    </edge>
    <edge id=":122623207_17" function="internal">
        <lane id=":122623207_17_0" index="0" speed="13.89" length="2.41" shape="582.98,1191.94 583.38,1191.11 584.61,1190.27"/>
    </edge>
    <edge id=":122623207_8" function="internal">