<routes>
		<vType id="typeBike" accel="0.5" decel="5" sigma="0.5" length="2" minGap="3" maxSpeed="15" guiShape="bicycle"/>
		<route id="bike1" edges="430638860#0 430638860#1 430638860#2 430638860#3 434953517#0 434953517#1 434953517#2"/>
</routes>
