<?xml version="1.0" encoding="UTF-8"?>

<!-- generated on 03/30/18 17:12:17 by SUMO netconvert Version 0.30.0
<?xml version="1.0" encoding="UTF-8"?>

<configuration xmlns:xsi="http://www.w3.org/2001/XMLSchema-instance" xsi:noNamespaceSchemaLocation="http://sumo.dlr.de/xsd/netconvertConfiguration.xsd">

    <input>
        <osm-files value="campus_traffic_lights.osm"/>
    </input>

    <output>
        <output-file value="campusmap.net.xml"/>
    </output>

    <projection>
        <proj.utm value="true"/>
    </projection>

    <tls_building>
        <tls.join value="true"/>
    </tls_building>

    <ramp_guessing>
        <ramps.guess value="true"/>
    </ramp_guessing>

    <edge_removal>
        <remove-edges.by-vclass value="hov,taxi,bus,delivery,truck,tram,rail_urban,rail,rail_electric,motorcycle,bicycle,pedestrian"/>
        <remove-edges.isolated value="true"/>
    </edge_removal>

    <processing>
        <geometry.remove value="true"/>
    </processing>

    <report>
        <verbose value="true"/>
    </report>

</configuration>
-->

<net version="0.27" xmlns:xsi="http://www.w3.org/2001/XMLSchema-instance" xsi:noNamespaceSchemaLocation="http://sumo.dlr.de/xsd/net_file.xsd">

    <location netOffset="-423971.57,-3768705.04" convBoundary="0.00,0.00,339.39,527.35" origBoundary="-117.823831,34.056323,-117.819889,34.061078" projParameter="+proj=utm +zone=11 +ellps=WGS84 +datum=WGS84 +units=m +no_defs"/>

    <type id="highway.bridleway" priority="1" numLanes="1" speed="2.78" allow="pedestrian" oneway="1" width="2.00"/>
    <type id="highway.bus_guideway" priority="1" numLanes="1" speed="8.33" allow="bus" oneway="1"/>
    <type id="highway.cycleway" priority="1" numLanes="1" speed="5.56" allow="bicycle" oneway="0" width="1.00"/>
    <type id="highway.footway" priority="1" numLanes="1" speed="2.78" allow="pedestrian" oneway="1" width="2.00"/>
    <type id="highway.ford" priority="1" numLanes="1" speed="2.78" allow="army" oneway="0"/>
    <type id="highway.living_street" priority="3" numLanes="1" speed="2.78" disallow="tram rail_urban rail rail_electric ship" oneway="0"/>
    <type id="highway.motorway" priority="13" numLanes="2" speed="44.44" allow="private emergency authority army vip passenger hov taxi bus coach delivery truck trailer motorcycle evehicle custom1 custom2" oneway="1"/>
    <type id="highway.motorway_link" priority="12" numLanes="1" speed="22.22" allow="private emergency authority army vip passenger hov taxi bus coach delivery truck trailer motorcycle evehicle custom1 custom2" oneway="1"/>
    <type id="highway.path" priority="1" numLanes="1" speed="2.78" allow="bicycle pedestrian" oneway="1" width="2.00"/>
    <type id="highway.pedestrian" priority="1" numLanes="1" speed="2.78" allow="pedestrian" oneway="1" width="2.00"/>
    <type id="highway.primary" priority="9" numLanes="2" speed="27.78" disallow="tram rail_urban rail rail_electric ship" oneway="0"/>
    <type id="highway.primary_link" priority="8" numLanes="1" speed="22.22" disallow="tram rail_urban rail rail_electric ship" oneway="0"/>
    <type id="highway.raceway" priority="14" numLanes="2" speed="83.33" allow="vip" oneway="0"/>
    <type id="highway.residential" priority="4" numLanes="1" speed="13.89" disallow="tram rail_urban rail rail_electric ship" oneway="0"/>
    <type id="highway.secondary" priority="7" numLanes="2" speed="27.78" disallow="tram rail_urban rail rail_electric ship" oneway="0"/>
    <type id="highway.secondary_link" priority="6" numLanes="1" speed="22.22" disallow="tram rail_urban rail rail_electric ship" oneway="0"/>
    <type id="highway.service" priority="2" numLanes="1" speed="5.56" allow="delivery bicycle pedestrian" oneway="0"/>
    <type id="highway.services" priority="1" numLanes="1" speed="8.33" disallow="tram rail_urban rail rail_electric ship" oneway="0"/>
    <type id="highway.stairs" priority="1" numLanes="1" speed="1.39" allow="pedestrian" oneway="1" width="2.00"/>
    <type id="highway.step" priority="1" numLanes="1" speed="1.39" allow="pedestrian" oneway="1" width="2.00"/>
    <type id="highway.steps" priority="1" numLanes="1" speed="1.39" allow="pedestrian" oneway="1" width="2.00"/>
    <type id="highway.tertiary" priority="6" numLanes="1" speed="22.22" disallow="tram rail_urban rail rail_electric ship" oneway="0"/>
    <type id="highway.tertiary_link" priority="5" numLanes="1" speed="22.22" disallow="tram rail_urban rail rail_electric ship" oneway="0"/>
    <type id="highway.track" priority="1" numLanes="1" speed="5.56" disallow="tram rail_urban rail rail_electric ship" oneway="0"/>
    <type id="highway.trunk" priority="11" numLanes="2" speed="27.78" disallow="tram rail_urban rail rail_electric bicycle pedestrian ship" oneway="0"/>
    <type id="highway.trunk_link" priority="10" numLanes="1" speed="22.22" disallow="tram rail_urban rail rail_electric bicycle pedestrian ship" oneway="0"/>
    <type id="highway.unclassified" priority="5" numLanes="1" speed="13.89" disallow="tram rail_urban rail rail_electric ship" oneway="0"/>
    <type id="highway.unsurfaced" priority="1" numLanes="1" speed="8.33" disallow="tram rail_urban rail rail_electric ship" oneway="0"/>
    <type id="railway.light_rail" priority="15" numLanes="1" speed="27.78" allow="rail_urban" oneway="1"/>
    <type id="railway.preserved" priority="15" numLanes="1" speed="27.78" allow="rail" oneway="1"/>
    <type id="railway.rail" priority="15" numLanes="1" speed="83.33" allow="rail rail_electric" oneway="1"/>
    <type id="railway.subway" priority="15" numLanes="1" speed="27.78" allow="rail_urban" oneway="1"/>
    <type id="railway.tram" priority="15" numLanes="1" speed="13.89" allow="tram" oneway="1"/>

    <edge id=":-61307_0" function="internal">
        <lane id=":-61307_0_0" index="0" disallow="tram rail_urban rail rail_electric ship" speed="13.89" length="9.50" shape="153.45,158.95 152.15,168.36"/>
    </edge>
    <edge id=":-61307_1" function="internal">
        <lane id=":-61307_1_0" index="0" disallow="tram rail_urban rail rail_electric ship" speed="13.89" length="5.22" shape="153.45,158.95 152.65,161.71 151.17,163.54"/>
    </edge>
    <edge id=":-61307_2" function="internal">
        <lane id=":-61307_2_0" index="0" disallow="tram rail_urban rail rail_electric ship" speed="13.89" length="2.41" shape="153.45,158.95 152.46,160.07 151.59,160.36"/>
    </edge>
    <edge id=":-61307_9" function="internal">
        <lane id=":-61307_9_0" index="0" speed="13.89" length="5.22" shape="151.17,163.54 148.99,164.42 146.12,164.36"/>
    </edge>
    <edge id=":-61307_10" function="internal">
        <lane id=":-61307_10_0" index="0" speed="13.89" length="2.41" shape="151.59,160.36 150.83,159.84 150.18,158.50"/>
    </edge>
    <edge id=":-61307_3" function="internal">
        <lane id=":-61307_3_0" index="0" disallow="tram rail_urban rail rail_electric ship" speed="13.89" length="5.03" shape="146.65,161.10 148.03,161.13 149.08,160.71 149.80,159.83 150.18,158.50"/>
    </edge>
    <edge id=":-61307_4" function="internal">
        <lane id=":-61307_4_0" index="0" disallow="tram rail_urban rail rail_electric ship" speed="13.89" length="10.33" shape="146.65,161.10 149.38,161.95 151.20,163.44 152.13,165.58 152.15,168.36"/>
    </edge>
    <edge id=":-61307_5" function="internal">
        <lane id=":-61307_5_0" index="0" disallow="tram rail_urban rail rail_electric ship" speed="13.89" length="2.68" shape="146.65,161.10 147.74,162.12 148.01,163.00 147.85,163.22"/>
    </edge>
    <edge id=":-61307_11" function="internal">
        <lane id=":-61307_11_0" index="0" speed="13.89" length="2.14" shape="147.85,163.22 147.47,163.75 146.12,164.36"/>
    </edge>
    <edge id=":-61307_6" function="internal">
        <lane id=":-61307_6_0" index="0" disallow="tram rail_urban rail rail_electric ship" speed="13.89" length="5.10" shape="148.88,167.91 148.86,166.55 148.40,165.51 147.48,164.78 146.12,164.36"/>
    </edge>
    <edge id=":-61307_7" function="internal">
        <lane id=":-61307_7_0" index="0" disallow="tram rail_urban rail rail_electric ship" speed="13.89" length="9.50" shape="148.88,167.91 150.18,158.50"/>
    </edge>
    <edge id=":-61307_8" function="internal">
        <lane id=":-61307_8_0" index="0" disallow="tram rail_urban rail rail_electric ship" speed="13.89" length="2.41" shape="148.88,167.91 149.87,166.80 150.74,166.50"/>
    </edge>
    <edge id=":-61307_12" function="internal">
        <lane id=":-61307_12_0" index="0" speed="13.89" length="2.41" shape="150.74,166.50 151.50,167.02 152.15,168.36"/>
    </edge>
    <edge id=":-61379_0" function="internal">
        <lane id=":-61379_0_0" index="0" disallow="tram rail_urban rail rail_electric ship" speed="13.89" length="4.82" shape="69.37,282.27 68.64,280.98 68.64,280.06 69.38,279.51 70.85,279.32"/>
    </edge>
    <edge id=":-65722_0" function="internal">
        <lane id=":-65722_0_0" index="0" disallow="tram rail_urban rail rail_electric ship" speed="13.89" length="5.62" shape="110.57,302.75 109.13,302.29 107.85,302.38 106.74,303.04 105.79,304.25"/>
    </edge>
    <edge id=":-65722_1" function="internal">
        <lane id=":-65722_1_0" index="0" disallow="tram rail_urban rail rail_electric ship" speed="13.89" length="9.91" shape="110.57,302.75 101.66,298.40"/>
    </edge>
    <edge id=":-65722_2" function="internal">
        <lane id=":-65722_2_0" index="0" disallow="tram rail_urban rail rail_electric ship" speed="13.89" length="5.30" shape="110.57,302.75 108.15,301.11 106.87,299.11"/>
    </edge>
    <edge id=":-65722_3" function="internal">
        <lane id=":-65722_3_0" index="0" disallow="tram rail_urban rail rail_electric ship" speed="13.89" length="2.41" shape="110.57,302.75 109.82,301.46 109.80,300.54"/>
    </edge>
    <edge id=":-65722_16" function="internal">
        <lane id=":-65722_16_0" index="0" speed="13.89" length="5.30" shape="106.87,299.11 106.75,296.74 107.79,294.00"/>
    </edge>
    <edge id=":-65722_17" function="internal">
        <lane id=":-65722_17_0" index="0" speed="13.89" length="2.41" shape="109.80,300.54 110.54,299.98 112.01,299.78"/>
    </edge>
    <edge id=":-65722_4" function="internal">
        <lane id=":-65722_4_0" index="0" disallow="tram rail_urban rail rail_electric ship" speed="13.89" length="5.06" shape="110.68,295.60 110.18,296.90 110.24,298.04 110.85,298.99 112.01,299.78"/>
    </edge>
    <edge id=":-65722_5" function="internal">
        <lane id=":-65722_5_0" index="0" disallow="tram rail_urban rail rail_electric ship" speed="13.89" length="9.94" shape="110.68,295.60 105.79,304.25"/>
    </edge>
    <edge id=":-65722_6" function="internal">
        <lane id=":-65722_6_0" index="0" disallow="tram rail_urban rail rail_electric ship" speed="13.89" length="5.45" shape="110.68,295.60 108.94,297.91 106.85,299.14 106.72,299.15"/>
    </edge>
    <edge id=":-65722_7" function="internal">
        <lane id=":-65722_7_0" index="0" disallow="tram rail_urban rail rail_electric ship" speed="13.89" length="2.41" shape="110.68,295.60 109.36,296.28 108.44,296.24"/>
    </edge>
    <edge id=":-65722_18" function="internal">
        <lane id=":-65722_18_0" index="0" speed="13.89" length="5.20" shape="106.72,299.15 104.43,299.31 101.66,298.40"/>
    </edge>
    <edge id=":-65722_19" function="internal">
        <lane id=":-65722_19_0" index="0" speed="13.89" length="2.41" shape="108.44,296.24 107.91,295.49 107.79,294.00"/>
    </edge>
    <edge id=":-65722_8" function="internal">
        <lane id=":-65722_8_0" index="0" disallow="tram rail_urban rail rail_electric ship" speed="13.89" length="5.51" shape="103.12,295.44 104.56,295.91 105.81,295.83 106.89,295.19 107.79,294.00"/>
    </edge>
    <edge id=":-65722_9" function="internal">
        <lane id=":-65722_9_0" index="0" disallow="tram rail_urban rail rail_electric ship" speed="13.89" length="9.89" shape="103.12,295.44 112.01,299.78"/>
    </edge>
    <edge id=":-65722_10" function="internal">
        <lane id=":-65722_10_0" index="0" disallow="tram rail_urban rail rail_electric ship" speed="13.89" length="5.33" shape="103.12,295.44 105.56,297.10 106.81,299.13"/>
    </edge>
    <edge id=":-65722_11" function="internal">
        <lane id=":-65722_11_0" index="0" disallow="tram rail_urban rail rail_electric ship" speed="13.89" length="2.41" shape="103.12,295.44 103.87,296.72 103.87,297.65"/>
    </edge>
    <edge id=":-65722_20" function="internal">
        <lane id=":-65722_20_0" index="0" speed="13.89" length="5.33" shape="106.81,299.13 106.89,301.51 105.79,304.25"/>
    </edge>
    <edge id=":-65722_21" function="internal">
        <lane id=":-65722_21_0" index="0" speed="13.89" length="2.41" shape="103.87,297.65 103.14,298.20 101.66,298.40"/>
    </edge>
    <edge id=":-65722_12" function="internal">
        <lane id=":-65722_12_0" index="0" disallow="tram rail_urban rail rail_electric ship" speed="13.89" length="5.08" shape="102.94,302.59 103.46,301.29 103.42,300.15 102.82,299.19 101.66,298.40"/>
    </edge>
    <edge id=":-65722_13" function="internal">
        <lane id=":-65722_13_0" index="0" disallow="tram rail_urban rail rail_electric ship" speed="13.89" length="9.87" shape="102.94,302.59 107.79,294.00"/>
    </edge>
    <edge id=":-65722_14" function="internal">
        <lane id=":-65722_14_0" index="0" disallow="tram rail_urban rail rail_electric ship" speed="13.89" length="5.35" shape="102.94,302.59 104.72,300.31 106.83,299.07"/>
    </edge>
    <edge id=":-65722_15" function="internal">
        <lane id=":-65722_15_0" index="0" disallow="tram rail_urban rail rail_electric ship" speed="13.89" length="2.41" shape="102.94,302.59 104.27,301.94 105.19,301.99"/>
    </edge>
    <edge id=":-65722_22" function="internal">
        <lane id=":-65722_22_0" index="0" speed="13.89" length="5.32" shape="106.83,299.07 109.26,298.90 112.01,299.78"/>
    </edge>
    <edge id=":-65722_23" function="internal">
        <lane id=":-65722_23_0" index="0" speed="13.89" length="2.41" shape="105.19,301.99 105.70,302.76 105.79,304.25"/>
    </edge>
    <edge id=":-65814_0" function="internal">
        <lane id=":-65814_0_0" index="0" disallow="tram rail_urban rail rail_electric ship" speed="13.89" length="5.20" shape="139.83,239.06 138.44,238.61 137.31,238.75 136.43,239.48 135.81,240.80"/>
    </edge>
    <edge id=":-65814_1" function="internal">
        <lane id=":-65814_1_0" index="0" disallow="tram rail_urban rail rail_electric ship" speed="13.89" length="11.09" shape="139.83,239.06 130.09,233.75"/>
    </edge>
    <edge id=":-65814_2" function="internal">
        <lane id=":-65814_2_0" index="0" disallow="tram rail_urban rail rail_electric ship" speed="13.89" length="5.94" shape="139.83,239.06 137.32,237.34 135.82,235.15 135.78,234.92"/>
    </edge>
    <edge id=":-65814_3" function="internal">
        <lane id=":-65814_3_0" index="0" disallow="tram rail_urban rail rail_electric ship" speed="13.89" length="2.54" shape="139.83,239.06 139.08,237.77 139.08,236.85 139.18,236.77"/>
    </edge>
    <edge id=":-65814_16" function="internal">
        <lane id=":-65814_16_0" index="0" speed="13.89" length="5.64" shape="135.78,234.92 135.34,232.49 135.87,229.36"/>
    </edge>
    <edge id=":-65814_17" function="internal">
        <lane id=":-65814_17_0" index="0" speed="13.89" length="2.28" shape="139.18,236.77 139.81,236.29 141.28,236.10"/>
    </edge>
    <edge id=":-65814_4" function="internal">
        <lane id=":-65814_4_0" index="0" disallow="tram rail_urban rail rail_electric ship" speed="13.89" length="6.84" shape="139.03,230.33 138.70,232.21 138.97,233.80 139.83,235.09 141.28,236.10"/>
    </edge>
    <edge id=":-65814_5" function="internal">
        <lane id=":-65814_5_0" index="0" disallow="tram rail_urban rail rail_electric ship" speed="13.89" length="10.96" shape="139.03,230.33 135.81,240.80"/>
    </edge>
    <edge id=":-65814_6" function="internal">
        <lane id=":-65814_6_0" index="0" disallow="tram rail_urban rail rail_electric ship" speed="13.89" length="5.48" shape="139.03,230.33 137.61,233.32 135.91,234.68"/>
    </edge>
    <edge id=":-65814_7" function="internal">
        <lane id=":-65814_7_0" index="0" disallow="tram rail_urban rail rail_electric ship" speed="13.89" length="2.41" shape="139.03,230.33 137.87,231.27 136.96,231.42"/>
    </edge>
    <edge id=":-65814_18" function="internal">
        <lane id=":-65814_18_0" index="0" speed="13.89" length="6.16" shape="135.91,234.68 135.65,234.89 133.14,235.03 130.09,233.75"/>
    </edge>
    <edge id=":-65814_19" function="internal">
        <lane id=":-65814_19_0" index="0" speed="13.89" length="2.41" shape="136.96,231.42 136.30,230.78 135.87,229.36"/>
    </edge>
    <edge id=":-65814_8" function="internal">
        <lane id=":-65814_8_0" index="0" disallow="tram rail_urban rail rail_electric ship" speed="13.89" length="5.32" shape="131.79,230.92 133.19,231.50 134.33,231.44 135.23,230.72 135.87,229.36"/>
    </edge>
    <edge id=":-65814_9" function="internal">
        <lane id=":-65814_9_0" index="0" disallow="tram rail_urban rail rail_electric ship" speed="13.89" length="10.81" shape="131.79,230.92 141.28,236.10"/>
    </edge>
    <edge id=":-65814_10" function="internal">
        <lane id=":-65814_10_0" index="0" disallow="tram rail_urban rail rail_electric ship" speed="13.89" length="5.62" shape="131.79,230.92 134.27,232.87 135.62,234.94"/>
    </edge>
    <edge id=":-65814_11" function="internal">
        <lane id=":-65814_11_0" index="0" disallow="tram rail_urban rail rail_electric ship" speed="13.89" length="2.41" shape="131.79,230.92 132.43,232.26 132.36,233.18"/>
    </edge>
    <edge id=":-65814_20" function="internal">
        <lane id=":-65814_20_0" index="0" speed="13.89" length="6.00" shape="135.62,234.94 135.77,235.17 136.28,237.82 135.81,240.80"/>
    </edge>
    <edge id=":-65814_21" function="internal">
        <lane id=":-65814_21_0" index="0" speed="13.89" length="2.41" shape="132.36,233.18 131.58,233.68 130.09,233.75"/>
    </edge>
    <edge id=":-65814_12" function="internal">
        <lane id=":-65814_12_0" index="0" disallow="tram rail_urban rail rail_electric ship" speed="13.89" length="7.20" shape="132.66,239.84 132.94,238.02 132.60,236.39 131.65,234.97 130.09,233.75"/>
    </edge>
    <edge id=":-65814_13" function="internal">
        <lane id=":-65814_13_0" index="0" disallow="tram rail_urban rail rail_electric ship" speed="13.89" length="10.97" shape="132.66,239.84 135.87,229.36"/>
    </edge>
    <edge id=":-65814_14" function="internal">
        <lane id=":-65814_14_0" index="0" disallow="tram rail_urban rail rail_electric ship" speed="13.89" length="5.43" shape="132.66,239.84 133.99,237.01 135.76,235.53"/>
    </edge>
    <edge id=":-65814_15" function="internal">
        <lane id=":-65814_15_0" index="0" disallow="tram rail_urban rail rail_electric ship" speed="13.89" length="2.41" shape="132.66,239.84 133.81,238.90 134.72,238.75"/>
    </edge>
    <edge id=":-65814_22" function="internal">
        <lane id=":-65814_22_0" index="0" speed="13.89" length="5.73" shape="135.76,235.53 135.87,235.44 138.30,235.13 141.28,236.10"/>
    </edge>
    <edge id=":-65814_23" function="internal">
        <lane id=":-65814_23_0" index="0" speed="13.89" length="2.41" shape="134.72,238.75 135.38,239.38 135.81,240.80"/>
    </edge>
    <edge id=":122833195_0" function="internal">
        <lane id=":122833195_0_0" index="0" disallow="tram rail_urban rail rail_electric ship" speed="13.89" length="7.88" shape="163.57,126.02 162.03,127.76 161.12,129.08 160.43,130.54 159.55,132.70"/>
    </edge>
    <edge id=":122833195_1" function="internal">
        <lane id=":122833195_1_0" index="0" disallow="tram rail_urban rail rail_electric ship" speed="13.89" length="4.43" shape="163.57,126.02 161.80,127.41 159.74,128.11"/>
    </edge>
    <edge id=":122833195_2" function="internal">
        <lane id=":122833195_2_0" index="0" disallow="tram rail_urban rail rail_electric ship" speed="13.89" length="2.41" shape="163.57,126.02 162.12,126.36 161.24,126.10"/>
    </edge>
    <edge id=":122833195_9" function="internal">
        <lane id=":122833195_9_0" index="0" speed="13.89" length="5.10" shape="159.74,128.11 157.38,128.12 154.73,127.44"/>
    </edge>
    <edge id=":122833195_10" function="internal">
        <lane id=":122833195_10_0" index="0" speed="13.89" length="2.41" shape="161.24,126.10 160.92,125.24 161.16,123.77"/>
    </edge>
    <edge id=":122833195_3" function="internal">
        <lane id=":122833195_3_0" index="0" disallow="tram rail_urban rail rail_electric ship" speed="13.89" length="5.64" shape="155.87,124.34 157.53,124.79 158.96,124.85 160.17,124.51 161.16,123.77"/>
    </edge>
    <edge id=":122833195_4" function="internal">
        <lane id=":122833195_4_0" index="0" disallow="tram rail_urban rail rail_electric ship" speed="13.89" length="10.50" shape="155.87,124.34 158.42,125.72 159.88,127.57 160.25,129.90 159.55,132.70"/>
    </edge>
    <edge id=":122833195_5" function="internal">
        <lane id=":122833195_5_0" index="0" disallow="tram rail_urban rail rail_electric ship" speed="13.89" length="2.69" shape="155.87,124.34 156.75,125.54 156.85,126.46 156.64,126.65"/>
    </edge>
    <edge id=":122833195_11" function="internal">
        <lane id=":122833195_11_0" index="0" speed="13.89" length="2.13" shape="156.64,126.65 156.18,127.09 154.73,127.44"/>
    </edge>
    <edge id=":122833195_6" function="internal">
        <lane id=":122833195_6_0" index="0" disallow="tram rail_urban rail rail_electric ship" speed="13.89" length="5.04" shape="156.49,131.45 156.83,130.10 156.65,128.99 155.95,128.10 154.73,127.44"/>
    </edge>
    <edge id=":122833195_7" function="internal">
        <lane id=":122833195_7_0" index="0" disallow="tram rail_urban rail rail_electric ship" speed="13.89" length="9.08" shape="156.49,131.45 157.51,128.96 158.32,127.28 159.38,125.77 161.16,123.77"/>
    </edge>
    <edge id=":122833195_8" function="internal">
        <lane id=":122833195_8_0" index="0" disallow="tram rail_urban rail rail_electric ship" speed="13.89" length="2.41" shape="156.49,131.45 157.73,130.62 158.65,130.55"/>
    </edge>
    <edge id=":122833195_12" function="internal">
        <lane id=":122833195_12_0" index="0" speed="13.89" length="2.41" shape="158.65,130.55 159.25,131.25 159.55,132.70"/>
    </edge>
    <edge id=":122991605_0" function="internal">
        <lane id=":122991605_0_0" index="0" disallow="tram rail_urban rail rail_electric ship" speed="13.89" length="4.82" shape="244.99,528.56 243.52,528.79 242.66,528.46 242.40,527.58 242.75,526.13"/>
    </edge>
    <edge id=":3605227474_0" function="internal">
        <lane id=":3605227474_0_0" index="0" disallow="tram rail_urban rail rail_electric ship" speed="13.89" length="4.82" shape="261.14,-0.77 262.45,-1.48 263.37,-1.46 263.91,-0.71 264.06,0.77"/>
    </edge>
    <edge id=":3605227483_0" function="internal">
        <lane id=":3605227483_0_0" index="0" disallow="tram rail_urban rail rail_electric ship" speed="13.89" length="8.86" shape="212.04,103.83 209.41,103.67 207.61,103.60 205.81,103.67 203.19,103.92"/>
    </edge>
    <edge id=":3605227483_1" function="internal">
        <lane id=":3605227483_1_0" index="0" disallow="tram rail_urban rail rail_electric ship" speed="13.89" length="5.31" shape="212.04,103.83 208.96,103.20 207.22,101.91"/>
    </edge>
    <edge id=":3605227483_2" function="internal">
        <lane id=":3605227483_2_0" index="0" disallow="tram rail_urban rail rail_electric ship" speed="13.89" length="2.41" shape="212.04,103.83 210.85,102.93 210.49,102.08"/>
    </edge>
    <edge id=":3605227483_9" function="internal">
        <lane id=":3605227483_9_0" index="0" speed="13.89" length="5.89" shape="207.22,101.91 206.99,101.73 206.13,99.43 206.38,96.30"/>
    </edge>
    <edge id=":3605227483_10" function="internal">
        <lane id=":3605227483_10_0" index="0" speed="13.89" length="2.41" shape="210.49,102.08 210.95,101.29 212.23,100.53"/>
    </edge>
    <edge id=":3605227483_3" function="internal">
        <lane id=":3605227483_3_0" index="0" disallow="tram rail_urban rail rail_electric ship" speed="13.89" length="5.21" shape="209.60,97.03 209.48,98.49 209.88,99.56 210.80,100.24 212.23,100.53"/>
    </edge>
    <edge id=":3605227483_4" function="internal">
        <lane id=":3605227483_4_0" index="0" disallow="tram rail_urban rail rail_electric ship" speed="13.89" length="10.09" shape="209.60,97.03 208.66,99.84 207.28,101.93 205.45,103.29 203.19,103.92"/>
    </edge>
    <edge id=":3605227483_5" function="internal">
        <lane id=":3605227483_5_0" index="0" disallow="tram rail_urban rail rail_electric ship" speed="13.89" length="2.60" shape="209.60,97.03 208.52,98.05 207.62,98.27 207.47,98.15"/>
    </edge>
    <edge id=":3605227483_11" function="internal">
        <lane id=":3605227483_11_0" index="0" speed="13.89" length="2.21" shape="207.47,98.15 206.91,97.69 206.38,96.30"/>
    </edge>
    <edge id=":3605227483_6" function="internal">
        <lane id=":3605227483_6_0" index="0" disallow="tram rail_urban rail rail_electric ship" speed="13.89" length="5.99" shape="202.83,100.64 204.04,100.26 205.03,99.41 205.81,98.09 206.38,96.30"/>
    </edge>
    <edge id=":3605227483_7" function="internal">
        <lane id=":3605227483_7_0" index="0" disallow="tram rail_urban rail rail_electric ship" speed="13.89" length="9.42" shape="202.83,100.64 205.61,100.37 207.52,100.29 209.44,100.36 212.23,100.53"/>
    </edge>
    <edge id=":3605227483_8" function="internal">
        <lane id=":3605227483_8_0" index="0" disallow="tram rail_urban rail rail_electric ship" speed="13.89" length="2.41" shape="202.83,100.64 204.15,101.33 204.65,102.10"/>
    </edge>
    <edge id=":3605227483_12" function="internal">
        <lane id=":3605227483_12_0" index="0" speed="13.89" length="2.41" shape="204.65,102.10 204.33,102.97 203.19,103.92"/>
    </edge>
    <edge id=":4292416505_0" function="internal">
        <lane id=":4292416505_0_0" index="0" disallow="tram rail_urban rail rail_electric ship" speed="13.89" length="8.70" shape="319.97,220.58 318.83,218.38 317.54,217.21 315.88,216.34 313.61,215.06"/>
    </edge>
    <edge id=":4292416505_1" function="internal">
        <lane id=":4292416505_1_0" index="0" disallow="tram rail_urban rail rail_electric ship" speed="13.89" length="10.43" shape="319.97,220.58 319.06,217.71 318.83,215.57 318.97,213.37 319.17,210.31"/>
    </edge>
    <edge id=":4292416505_2" function="internal">
        <lane id=":4292416505_2_0" index="0" disallow="tram rail_urban rail rail_electric ship" speed="13.89" length="2.58" shape="319.97,220.58 320.29,219.13 320.91,218.45 321.08,218.46"/>
    </edge>
    <edge id=":4292416505_9" function="internal">
        <lane id=":4292416505_9_0" index="0" speed="13.89" length="2.24" shape="321.08,218.46 321.83,218.53 323.05,219.39"/>
    </edge>
    <edge id=":4292416505_3" function="internal">
        <lane id=":4292416505_3_0" index="0" disallow="tram rail_urban rail rail_electric ship" speed="13.89" length="9.11" shape="322.47,210.42 322.27,213.13 322.09,215.02 322.25,216.85 323.05,219.39"/>
    </edge>
    <edge id=":4292416505_4" function="internal">
        <lane id=":4292416505_4_0" index="0" disallow="tram rail_urban rail rail_electric ship" speed="13.89" length="6.22" shape="322.47,210.42 321.79,214.52 320.50,216.14"/>
    </edge>
    <edge id=":4292416505_5" function="internal">
        <lane id=":4292416505_5_0" index="0" disallow="tram rail_urban rail rail_electric ship" speed="13.89" length="2.52" shape="322.47,210.42 321.61,211.63 320.77,212.02 320.67,211.96"/>
    </edge>
    <edge id=":4292416505_10" function="internal">
        <lane id=":4292416505_10_0" index="0" speed="13.89" length="7.55" shape="320.50,216.14 320.09,216.65 317.36,216.84 313.61,215.06"/>
    </edge>
    <edge id=":4292416505_11" function="internal">
        <lane id=":4292416505_11_0" index="0" speed="13.89" length="2.30" shape="320.67,211.96 319.96,211.58 319.17,210.31"/>
    </edge>
    <edge id=":4292416505_6" function="internal">
        <lane id=":4292416505_6_0" index="0" disallow="tram rail_urban rail rail_electric ship" speed="13.89" length="5.87" shape="315.40,212.29 317.00,213.05 318.16,212.97 318.88,212.06 319.17,210.31"/>
    </edge>
    <edge id=":4292416505_7" function="internal">
        <lane id=":4292416505_7_0" index="0" disallow="tram rail_urban rail rail_electric ship" speed="13.89" length="10.74" shape="315.40,212.29 318.11,213.89 320.12,215.11 321.68,216.69 323.05,219.39"/>
    </edge>
    <edge id=":4292416505_8" function="internal">
        <lane id=":4292416505_8_0" index="0" disallow="tram rail_urban rail rail_electric ship" speed="13.89" length="2.41" shape="315.40,212.29 315.99,213.65 315.89,214.57"/>
    </edge>
    <edge id=":4292416505_12" function="internal">
        <lane id=":4292416505_12_0" index="0" speed="13.89" length="2.41" shape="315.89,214.57 315.09,215.04 313.61,215.06"/>
    </edge>
    <edge id=":4298997797_0" function="internal">
        <lane id=":4298997797_0_0" index="0" disallow="tram rail_urban rail rail_electric ship" speed="13.89" length="4.82" shape="84.01,336.46 82.63,337.01 81.72,336.89 81.27,336.08 81.28,334.59"/>
    </edge>
    <edge id=":4308196392_0" function="internal">
        <lane id=":4308196392_0_0" index="0" disallow="tram rail_urban rail rail_electric ship" speed="13.89" length="4.82" shape="-0.74,166.47 -1.48,165.18 -1.48,164.26 -0.74,163.71 0.74,163.52"/>
    </edge>
    <edge id=":4311466332_0" function="internal">