<routes>
		<vType id="typeBike" vClass="emergency" emissionClass="Energy/unknown" color="green" accel="0.5" decel="5" sigma="0" length="2" minGap="0" maxSpeed="20" jmDriveAterRedTime="100" guiShape="bicycle">
			<param key="maximumBatteryCapacity" value="2000"/>
		      <param key="maximumPower" value="150"/>
		      <param key="vehicleMass" value="100"/>
		      <param key="frontSurfaceArea" value="0.5"/>
		      <param key="airDragCoefficient" value="0.6"/>
		      <param key="internalMomentOfInertia" value="0.01"/>
		      <param key="radialDragCoefficient" value="0.5"/>
		      <param key="rollDragCoefficient" value="0.01"/>
		      <param key="constantPowerIntake" value="0"/>
		      <param key="propulsionEfficiency" value="1"/>
		      <param key="recuperationEfficiency" value="0"/>
		      <param key="stoppingTreshold" value="0.1"/>
		</vType>
		<route id="bike1" edges=":4311466555_0 -431941220#4 -431941220#3 -431941220#2 -431941220#1 -431941220#0 -430004090#0 -430861635#0"/>
</routes>
