<?xml version="1.0" encoding="UTF-8"?>

<!-- generated on 05/18/18 18:27:41 by SUMO netconvert Version 0.32.0
<?xml version="1.0" encoding="UTF-8"?>

<configuration xmlns:xsi="http://www.w3.org/2001/XMLSchema-instance" xsi:noNamespaceSchemaLocation="http://sumo.dlr.de/xsd/netconvertConfiguration.xsd">

    <input>
        <osm-files value="bric_edit.osm"/>
    </input>

    <output>
        <output-file value="bric.net.xml"/>
    </output>

    <projection>
        <proj.utm value="true"/>
    </projection>

    <tls_building>
        <tls.join value="true"/>
        <tls.green.time value="30"/>
        <tls.yellow.time value="3"/>
        <tls.left-green.time value="0"/>
    </tls_building>

    <ramp_guessing>
        <ramps.guess value="true"/>
    </ramp_guessing>

    <processing>
        <geometry.remove value="true"/>
        <geometry.min-radius.fix value="true"/>
        <roundabouts.guess value="true"/>
        <junctions.join value="true"/>
    </processing>

</configuration>
-->

<net version="0.27" xmlns:xsi="http://www.w3.org/2001/XMLSchema-instance" xsi:noNamespaceSchemaLocation="http://sumo.dlr.de/xsd/net_file.xsd">

    <location netOffset="-424076.78,-3768042.09" convBoundary="0.00,0.00,669.39,670.30" origBoundary="-117.822677,34.050373,-117.815393,34.056378" projParameter="+proj=utm +zone=11 +ellps=WGS84 +datum=WGS84 +units=m +no_defs"/>

    <type id="highway.bridleway" priority="1" numLanes="1" speed="2.78" allow="pedestrian" oneway="1" width="2.00"/>
    <type id="highway.bus_guideway" priority="1" numLanes="1" speed="8.33" allow="bus" oneway="1"/>
    <type id="highway.cycleway" priority="1" numLanes="1" speed="5.56" allow="bicycle" oneway="0" width="1.00"/>
    <type id="highway.footway" priority="1" numLanes="1" speed="2.78" allow="pedestrian" oneway="1" width="2.00"/>
    <type id="highway.ford" priority="1" numLanes="1" speed="2.78" allow="army" oneway="0"/>
    <type id="highway.living_street" priority="3" numLanes="1" speed="2.78" disallow="tram rail_urban rail rail_electric ship" oneway="0"/>
    <type id="highway.motorway" priority="13" numLanes="2" speed="44.44" allow="private emergency authority army vip passenger hov taxi bus coach delivery truck trailer motorcycle evehicle custom1 custom2" oneway="1"/>
    <type id="highway.motorway_link" priority="12" numLanes="1" speed="22.22" allow="private emergency authority army vip passenger hov taxi bus coach delivery truck trailer motorcycle evehicle custom1 custom2" oneway="1"/>
    <type id="highway.path" priority="1" numLanes="1" speed="2.78" allow="bicycle pedestrian" oneway="1" width="2.00"/>
    <type id="highway.pedestrian" priority="1" numLanes="1" speed="2.78" allow="pedestrian" oneway="1" width="2.00"/>
    <type id="highway.primary" priority="9" numLanes="2" speed="27.78" disallow="tram rail_urban rail rail_electric ship" oneway="0"/>
    <type id="highway.primary_link" priority="8" numLanes="1" speed="22.22" disallow="tram rail_urban rail rail_electric ship" oneway="0"/>
    <type id="highway.raceway" priority="14" numLanes="2" speed="83.33" allow="vip" oneway="0"/>
    <type id="highway.residential" priority="4" numLanes="1" speed="13.89" disallow="tram rail_urban rail rail_electric ship" oneway="0"/>
    <type id="highway.secondary" priority="7" numLanes="2" speed="27.78" disallow="tram rail_urban rail rail_electric ship" oneway="0"/>
    <type id="highway.secondary_link" priority="6" numLanes="1" speed="22.22" disallow="tram rail_urban rail rail_electric ship" oneway="0"/>
    <type id="highway.service" priority="2" numLanes="1" speed="5.56" allow="delivery bicycle pedestrian" oneway="0"/>
    <type id="highway.services" priority="1" numLanes="1" speed="8.33" disallow="tram rail_urban rail rail_electric ship" oneway="0"/>
    <type id="highway.stairs" priority="1" numLanes="1" speed="1.39" allow="pedestrian" oneway="1" width="2.00"/>
    <type id="highway.step" priority="1" numLanes="1" speed="1.39" allow="pedestrian" oneway="1" width="2.00"/>
    <type id="highway.steps" priority="1" numLanes="1" speed="1.39" allow="pedestrian" oneway="1" width="2.00"/>
    <type id="highway.tertiary" priority="6" numLanes="1" speed="22.22" disallow="tram rail_urban rail rail_electric ship" oneway="0"/>
    <type id="highway.tertiary_link" priority="5" numLanes="1" speed="22.22" disallow="tram rail_urban rail rail_electric ship" oneway="0"/>
    <type id="highway.track" priority="1" numLanes="1" speed="5.56" disallow="tram rail_urban rail rail_electric ship" oneway="0"/>
    <type id="highway.trunk" priority="11" numLanes="2" speed="27.78" disallow="tram rail_urban rail rail_electric bicycle pedestrian ship" oneway="0"/>
    <type id="highway.trunk_link" priority="10" numLanes="1" speed="22.22" disallow="tram rail_urban rail rail_electric bicycle pedestrian ship" oneway="0"/>
    <type id="highway.unclassified" priority="5" numLanes="1" speed="13.89" disallow="tram rail_urban rail rail_electric ship" oneway="0"/>
    <type id="highway.unsurfaced" priority="1" numLanes="1" speed="8.33" disallow="tram rail_urban rail rail_electric ship" oneway="0"/>
    <type id="railway.light_rail" priority="15" numLanes="1" speed="27.78" allow="rail_urban" oneway="1"/>
    <type id="railway.preserved" priority="15" numLanes="1" speed="27.78" allow="rail" oneway="1"/>
    <type id="railway.rail" priority="15" numLanes="1" speed="83.33" allow="rail rail_electric" oneway="1"/>
    <type id="railway.subway" priority="15" numLanes="1" speed="27.78" allow="rail_urban" oneway="1"/>
    <type id="railway.tram" priority="15" numLanes="1" speed="13.89" allow="tram" oneway="1"/>

    <edge id=":-38986_0" function="internal">
        <lane id=":-38986_0_0" index="0" disallow="tram rail_urban rail rail_electric ship" speed="13.89" length="4.82" shape="322.87,457.24 324.16,456.50 325.08,456.50 325.64,457.24 325.82,458.71"/>
    </edge>
    <edge id=":-38988_0" function="internal">
        <lane id=":-38988_0_0" index="0" disallow="tram rail_urban rail rail_electric ship" speed="13.89" length="4.82" shape="295.26,468.13 294.44,466.89 294.37,465.97 295.07,465.36 296.53,465.08"/>
    </edge>
    <edge id=":-38990_0" function="internal">
        <lane id=":-38990_0_0" index="0" disallow="tram rail_urban rail rail_electric ship" speed="13.89" length="4.82" shape="504.24,309.16 504.47,307.69 505.04,306.97 505.97,307.00 507.23,307.78"/>
    </edge>
    <edge id=":-38992_0" function="internal">
        <lane id=":-38992_0_0" index="0" disallow="tram rail_urban rail rail_electric ship" speed="13.89" length="4.82" shape="536.74,371.33 536.51,372.80 535.94,373.52 535.02,373.50 533.75,372.73"/>
    </edge>
    <edge id=":-38994_0" function="internal">
        <lane id=":-38994_0_0" index="0" disallow="tram rail_urban rail rail_electric ship" speed="13.89" length="4.82" shape="615.41,285.24 614.45,284.10 614.29,283.19 614.92,282.52 616.33,282.07"/>
    </edge>
    <edge id=":-38996_0" function="internal">
        <lane id=":-38996_0_0" index="0" disallow="tram rail_urban rail rail_electric ship" speed="13.89" length="4.82" shape="670.09,305.06 670.86,306.34 670.88,307.26 670.16,307.83 668.69,308.05"/>
    </edge>
    <edge id=":-38998_0" function="internal">
        <lane id=":-38998_0_0" index="0" disallow="tram rail_urban rail rail_electric ship" speed="13.89" length="4.82" shape="212.84,330.68 213.04,329.20 213.60,328.47 214.52,328.48 215.81,329.23"/>
    </edge>
    <edge id=":-39000_0" function="internal">
        <lane id=":-39000_0_0" index="0" disallow="tram rail_urban rail rail_electric ship" speed="13.89" length="4.82" shape="280.40,322.29 280.65,320.83 281.24,320.12 282.16,320.16 283.41,320.96"/>
    </edge>
    <edge id=":-39002_0" function="internal">
        <lane id=":-39002_0_0" index="0" disallow="tram rail_urban rail rail_electric ship" speed="13.89" length="4.82" shape="321.88,338.45 323.35,338.66 324.08,339.23 324.06,340.15 323.30,341.43"/>
    </edge>
    <edge id=":-39004_0" function="internal">
        <lane id=":-39004_0_0" index="0" disallow="tram rail_urban rail rail_electric ship" speed="13.89" length="4.82" shape="223.44,546.10 224.08,544.76 224.83,544.23 225.71,544.52 226.71,545.62"/>
    </edge>
    <edge id=":-39006_0" function="internal">
        <lane id=":-39006_0_0" index="0" disallow="tram rail_urban rail rail_electric ship" speed="13.89" length="4.82" shape="235.57,607.50 234.92,608.84 234.16,609.36 233.29,609.07 232.30,607.96"/>
    </edge>
    <edge id=":-39008_0" function="internal">
        <lane id=":-39008_0_0" index="0" disallow="tram rail_urban rail rail_electric ship" speed="13.89" length="4.82" shape="219.60,389.24 218.15,388.90 217.48,388.28 217.57,387.36 218.43,386.15"/>
    </edge>
    <edge id=":4292416497_0" function="internal">
        <lane id=":4292416497_0_0" index="0" disallow="tram rail_urban rail rail_electric ship" speed="13.89" length="5.42" shape="319.56,478.51 318.18,478.10 316.97,478.24 315.93,478.93 315.08,480.17"/>
    </edge>
    <edge id=":4292416497_1" function="internal">
        <lane id=":4292416497_1_0" index="0" disallow="tram rail_urban rail rail_electric ship" speed="13.89" length="9.78" shape="319.56,478.51 310.62,474.56"/>
    </edge>
    <edge id=":4292416497_2" function="internal">
        <lane id=":4292416497_2_0" index="0" disallow="tram rail_urban rail rail_electric ship" speed="13.89" length="5.23" shape="319.56,478.51 317.15,476.94 315.84,474.98"/>
    </edge>
    <edge id=":4292416497_3" function="internal">
        <lane id=":4292416497_3_0" index="0" disallow="tram rail_urban rail rail_electric ship" speed="13.89" length="2.41" shape="319.56,478.51 318.79,477.24 318.76,476.32"/>
    </edge>
    <edge id=":4292416497_16" function="internal">
        <lane id=":4292416497_16_0" index="0" speed="13.89" length="5.23" shape="315.84,474.98 315.64,472.63 316.55,469.90"/>
    </edge>
    <edge id=":4292416497_17" function="internal">
        <lane id=":4292416497_17_0" index="0" speed="13.89" length="2.41" shape="318.76,476.32 319.48,475.74 320.95,475.51"/>
    </edge>
    <edge id=":4292416497_4" function="internal">
        <lane id=":4292416497_4_0" index="0" disallow="tram rail_urban rail rail_electric ship" speed="13.89" length="5.03" shape="319.50,471.37 319.07,472.69 319.16,473.82 319.79,474.76 320.95,475.51"/>
    </edge>
    <edge id=":4292416497_5" function="internal">
        <lane id=":4292416497_5_0" index="0" disallow="tram rail_urban rail rail_electric ship" speed="13.89" length="9.85" shape="319.50,471.37 315.08,480.17"/>
    </edge>
    <edge id=":4292416497_6" function="internal">
        <lane id=":4292416497_6_0" index="0" disallow="tram rail_urban rail rail_electric ship" speed="13.89" length="5.36" shape="319.50,471.37 317.88,473.72 315.85,475.03 315.75,475.04"/>
    </edge>
    <edge id=":4292416497_7" function="internal">
        <lane id=":4292416497_7_0" index="0" disallow="tram rail_urban rail rail_electric ship" speed="13.89" length="2.41" shape="319.50,471.37 318.21,472.11 317.29,472.11"/>
    </edge>
    <edge id=":4292416497_18" function="internal">
        <lane id=":4292416497_18_0" index="0" speed="13.89" length="5.25" shape="315.75,475.04 313.43,475.31 310.62,474.56"/>
    </edge>
    <edge id=":4292416497_19" function="internal">
        <lane id=":4292416497_19_0" index="0" speed="13.89" length="2.41" shape="317.29,472.11 316.73,471.38 316.55,469.90"/>
    </edge>
    <edge id=":4292416497_8" function="internal">
        <lane id=":4292416497_8_0" index="0" disallow="tram rail_urban rail rail_electric ship" speed="13.89" length="5.54" shape="311.89,471.52 313.38,471.92 314.65,471.78 315.71,471.11 316.55,469.90"/>
    </edge>
    <edge id=":4292416497_9" function="internal">
        <lane id=":4292416497_9_0" index="0" disallow="tram rail_urban rail rail_electric ship" speed="13.89" length="9.90" shape="311.89,471.52 320.95,475.51"/>
    </edge>
    <edge id=":4292416497_10" function="internal">
        <lane id=":4292416497_10_0" index="0" disallow="tram rail_urban rail rail_electric ship" speed="13.89" length="5.46" shape="311.89,471.52 314.43,473.04 315.81,474.99 315.82,475.11"/>
    </edge>
    <edge id=":4292416497_11" function="internal">
        <lane id=":4292416497_11_0" index="0" disallow="tram rail_urban rail rail_electric ship" speed="13.89" length="2.41" shape="311.89,471.52 312.72,472.76 312.78,473.68"/>
    </edge>
    <edge id=":4292416497_20" function="internal">
        <lane id=":4292416497_20_0" index="0" speed="13.89" length="5.23" shape="315.82,475.11 316.02,477.37 315.08,480.17"/>
    </edge>
    <edge id=":4292416497_21" function="internal">
        <lane id=":4292416497_21_0" index="0" speed="13.89" length="2.41" shape="312.78,473.68 312.08,474.28 310.62,474.56"/>
    </edge>
    <edge id=":4292416497_12" function="internal">
        <lane id=":4292416497_12_0" index="0" disallow="tram rail_urban rail rail_electric ship" speed="13.89" length="5.09" shape="312.13,478.68 312.58,477.35 312.48,476.22 311.83,475.29 310.62,474.56"/>
    </edge>
    <edge id=":4292416497_13" function="internal">
        <lane id=":4292416497_13_0" index="0" disallow="tram rail_urban rail rail_electric ship" speed="13.89" length="9.83" shape="312.13,478.68 316.55,469.90"/>
    </edge>
    <edge id=":4292416497_14" function="internal">
        <lane id=":4292416497_14_0" index="0" disallow="tram rail_urban rail rail_electric ship" speed="13.89" length="5.35" shape="312.13,478.68 313.80,476.28 315.83,474.95"/>
    </edge>
    <edge id=":4292416497_15" function="internal">
        <lane id=":4292416497_15_0" index="0" disallow="tram rail_urban rail rail_electric ship" speed="13.89" length="2.41" shape="312.13,478.68 313.43,477.95 314.35,477.95"/>
    </edge>
    <edge id=":4292416497_22" function="internal">
        <lane id=":4292416497_22_0" index="0" speed="13.89" length="5.26" shape="315.83,474.95 318.21,474.70 320.95,475.51"/>
    </edge>
    <edge id=":4292416497_23" function="internal">
        <lane id=":4292416497_23_0" index="0" speed="13.89" length="2.41" shape="314.35,477.95 314.90,478.70 315.08,480.17"/>
    </edge>
    <edge id=":4296328697_0" function="internal">
        <lane id=":4296328697_0_0" index="0" disallow="tram rail_urban rail rail_electric ship" speed="13.89" length="5.00" shape="520.58,344.58 519.83,343.43 518.89,342.79 517.77,342.67 516.46,343.07"/>
    </edge>
    <edge id=":4296328697_1" function="internal">
        <lane id=":4296328697_1_0" index="0" disallow="tram rail_urban rail rail_electric ship" speed="13.89" length="9.53" shape="520.58,344.58 516.57,335.93"/>
    </edge>
    <edge id=":4296328697_2" function="internal">
        <lane id=":4296328697_2_0" index="0" disallow="tram rail_urban rail rail_electric ship" speed="13.89" length="5.29" shape="520.58,344.58 519.76,341.87 520.00,339.55 520.07,339.44"/>
    </edge>
    <edge id=":4296328697_3" function="internal">
        <lane id=":4296328697_3_0" index="0" disallow="tram rail_urban rail rail_electric ship" speed="13.89" length="2.41" shape="520.58,344.58 520.80,343.11 521.38,342.38"/>
    </edge>
    <edge id=":4296328697_16" function="internal">
        <lane id=":4296328697_16_0" index="0" speed="13.89" length="5.04" shape="520.07,339.44 521.31,337.61 523.68,336.06"/>
    </edge>
    <edge id=":4296328697_17" function="internal">
        <lane id=":4296328697_17_0" index="0" speed="13.89" length="2.41" shape="521.38,342.38 522.30,342.41 523.57,343.18"/>
    </edge>
    <edge id=":4296328697_4" function="internal">
        <lane id=":4296328697_4_0" index="0" disallow="tram rail_urban rail rail_electric ship" speed="13.89" length="5.01" shape="525.08,339.05 523.92,339.80 523.29,340.74 523.17,341.87 523.57,343.18"/>
    </edge>
    <edge id=":4296328697_5" function="internal">
        <lane id=":4296328697_5_0" index="0" disallow="tram rail_urban rail rail_electric ship" speed="13.89" length="9.51" shape="525.08,339.05 516.46,343.07"/>
    </edge>
    <edge id=":4296328697_6" function="internal">
        <lane id=":4296328697_6_0" index="0" disallow="tram rail_urban rail rail_electric ship" speed="13.89" length="5.28" shape="525.08,339.05 522.36,339.88 520.04,339.63 519.95,339.57"/>
    </edge>
    <edge id=":4296328697_7" function="internal">
        <lane id=":4296328697_7_0" index="0" disallow="tram rail_urban rail rail_electric ship" speed="13.89" length="2.41" shape="525.08,339.05 523.61,338.83 522.88,338.25"/>
    </edge>
    <edge id=":4296328697_18" function="internal">
        <lane id=":4296328697_18_0" index="0" speed="13.89" length="5.06" shape="519.95,339.57 518.11,338.31 516.57,335.93"/>
    </edge>
    <edge id=":4296328697_19" function="internal">
        <lane id=":4296328697_19_0" index="0" speed="13.89" length="2.41" shape="522.88,338.25 522.91,337.33 523.68,336.06"/>
    </edge>
    <edge id=":4296328697_8" function="internal">
        <lane id=":4296328697_8_0" index="0" disallow="tram rail_urban rail rail_electric ship" speed="13.89" length="5.00" shape="519.57,334.55 520.31,335.70 521.24,336.34 522.37,336.46 523.68,336.06"/>
    </edge>
    <edge id=":4296328697_9" function="internal">
        <lane id=":4296328697_9_0" index="0" disallow="tram rail_urban rail rail_electric ship" speed="13.89" length="9.51" shape="519.57,334.55 523.57,343.18"/>
    </edge>
    <edge id=":4296328697_10" function="internal">
        <lane id=":4296328697_10_0" index="0" disallow="tram rail_urban rail rail_electric ship" speed="13.89" length="5.27" shape="519.57,334.55 520.38,337.27 520.13,339.59 520.07,339.68"/>
    </edge>
    <edge id=":4296328697_11" function="internal">
        <lane id=":4296328697_11_0" index="0" disallow="tram rail_urban rail rail_electric ship" speed="13.89" length="2.41" shape="519.57,334.55 519.33,336.02 518.76,336.74"/>
    </edge>
    <edge id=":4296328697_20" function="internal">
        <lane id=":4296328697_20_0" index="0" speed="13.89" length="5.06" shape="520.07,339.68 518.82,341.53 516.46,343.07"/>
    </edge>
    <edge id=":4296328697_21" function="internal">
        <lane id=":4296328697_21_0" index="0" speed="13.89" length="2.41" shape="518.76,336.74 517.84,336.71 516.57,335.93"/>
    </edge>
    <edge id=":4296328697_12" function="internal">
        <lane id=":4296328697_12_0" index="0" disallow="tram rail_urban rail rail_electric ship" speed="13.89" length="5.03" shape="515.06,340.08 516.21,339.33 516.84,338.39 516.96,337.26 516.57,335.93"/>
    </edge>
    <edge id=":4296328697_13" function="internal">
        <lane id=":4296328697_13_0" index="0" disallow="tram rail_urban rail rail_electric ship" speed="13.89" length="9.51" shape="515.06,340.08 523.68,336.06"/>
    </edge>
    <edge id=":4296328697_14" function="internal">
        <lane id=":4296328697_14_0" index="0" disallow="tram rail_urban rail rail_electric ship" speed="13.89" length="5.28" shape="515.06,340.08 517.77,339.26 520.09,339.50 520.18,339.57"/>
    </edge>
    <edge id=":4296328697_15" function="internal">
        <lane id=":4296328697_15_0" index="0" disallow="tram rail_urban rail rail_electric ship" speed="13.89" length="2.41" shape="515.06,340.08 516.53,340.31 517.25,340.88"/>
    </edge>
    <edge id=":4296328697_22" function="internal">
        <lane id=":4296328697_22_0" index="0" speed="13.89" length="5.05" shape="520.18,339.57 522.02,340.81 523.57,343.18"/>
    </edge>
    <edge id=":4296328697_23" function="internal">
        <lane id=":4296328697_23_0" index="0" speed="13.89" length="2.41" shape="517.25,340.88 517.23,341.80 516.46,343.07"/>
    </edge>
    <edge id=":4296330400_0" function="internal">
        <lane id=":4296330400_0_0" index="0" disallow="tram rail_urban rail rail_electric ship" speed="13.89" length="10.28" shape="631.90,290.76 630.45,290.52 628.33,290.84 625.54,291.71 622.08,293.15"/>
    </edge>
    <edge id=":4296330400_1" function="internal">
        <lane id=":4296330400_1_0" index="0" disallow="tram rail_urban rail rail_electric ship" speed="13.89" length="13.01" shape="631.90,290.76 628.75,289.39 625.87,288.35 622.94,287.44 619.63,286.47"/>
    </edge>
    <edge id=":4296330400_2" function="internal">
        <lane id=":4296330400_2_0" index="0" disallow="tram rail_urban rail rail_electric ship" speed="13.89" length="4.97" shape="631.90,290.76 629.64,289.29 628.34,287.43"/>
    </edge>
    <edge id=":4296330400_3" function="internal">
        <lane id=":4296330400_3_0" index="0" disallow="tram rail_urban rail rail_electric ship" speed="13.89" length="2.41" shape="631.90,290.76 631.13,289.49 631.11,288.57"/>
    </edge>
    <edge id=":4296330400_16" function="internal">
        <lane id=":4296330400_16_0" index="0" speed="13.89" length="4.97" shape="628.34,287.43 627.98,285.18 628.57,282.55"/>
    </edge>
    <edge id=":4296330400_17" function="internal">
        <lane id=":4296330400_17_0" index="0" speed="13.89" length="2.41" shape="631.11,288.57 631.83,287.99 633.30,287.77"/>
    </edge>
    <edge id=":4296330400_4" function="internal">
        <lane id=":4296330400_4_0" index="0" disallow="tram rail_urban rail rail_electric ship" speed="13.89" length="4.91" shape="631.66,283.72 631.37,285.02 631.54,286.13 632.19,287.05 633.30,287.77"/>
    </edge>
    <edge id=":4296330400_5" function="internal">
        <lane id=":4296330400_5_0" index="0" disallow="tram rail_urban rail rail_electric ship" speed="13.89" length="13.81" shape="631.66,283.72 630.06,286.88 627.91,289.42 625.25,291.46 622.08,293.15"/>
    </edge>
    <edge id=":4296330400_6" function="internal">
        <lane id=":4296330400_6_0" index="0" disallow="tram rail_urban rail rail_electric ship" speed="13.89" length="5.28" shape="631.66,283.72 630.11,286.01 627.85,287.10"/>
    </edge>
    <edge id=":4296330400_7" function="internal">
        <lane id=":4296330400_7_0" index="0" disallow="tram rail_urban rail rail_electric ship" speed="13.89" length="2.62" shape="631.66,283.72 630.45,284.58 629.53,284.68 629.39,284.52"/>
    </edge>
    <edge id=":4296330400_18" function="internal">
        <lane id=":4296330400_18_0" index="0" speed="13.89" length="8.34" shape="627.85,287.10 627.58,287.23 624.09,287.38 619.63,286.47"/>
    </edge>
    <edge id=":4296330400_19" function="internal">
        <lane id=":4296330400_19_0" index="0" speed="13.89" length="2.20" shape="629.39,284.52 628.91,284.00 628.57,282.55"/>
    </edge>
    <edge id=":4296330400_8" function="internal">
        <lane id=":4296330400_8_0" index="0" disallow="tram rail_urban rail rail_electric ship" speed="13.89" length="8.69" shape="620.56,283.30 623.67,284.02 626.04,284.13 627.68,283.64 628.57,282.55"/>
    </edge>
    <edge id=":4296330400_9" function="internal">
        <lane id=":4296330400_9_0" index="0" disallow="tram rail_urban rail rail_electric ship" speed="13.89" length="13.52" shape="620.56,283.30 623.94,284.30 627.03,285.27 630.08,286.38 633.30,287.77"/>
    </edge>
    <edge id=":4296330400_10" function="internal">
        <lane id=":4296330400_10_0" index="0" disallow="tram rail_urban rail rail_electric ship" speed="13.89" length="8.16" shape="620.56,283.30 625.96,285.47 627.50,287.24"/>
    </edge>
    <edge id=":4296330400_11" function="internal">
        <lane id=":4296330400_11_0" index="0" disallow="tram rail_urban rail rail_electric ship" speed="13.89" length="2.41" shape="620.56,283.30 621.51,284.44 621.68,285.35"/>
    </edge>
    <edge id=":4296330400_20" function="internal">
        <lane id=":4296330400_20_0" index="0" speed="13.89" length="9.06" shape="627.50,287.24 628.02,287.84 626.73,290.39 622.08,293.15"/>
    </edge>
    <edge id=":4296330400_21" function="internal">
        <lane id=":4296330400_21_0" index="0" speed="13.89" length="2.41" shape="621.68,285.35 621.05,286.03 619.63,286.47"/>
    </edge>
    <edge id=":4296330400_12" function="internal">
        <lane id=":4296330400_12_0" index="0" disallow="tram rail_urban rail rail_electric ship" speed="13.89" length="6.84" shape="620.18,290.39 622.04,289.29 622.57,288.27 621.76,287.33 619.63,286.47"/>
    </edge>
    <edge id=":4296330400_13" function="internal">
        <lane id=":4296330400_13_0" index="0" disallow="tram rail_urban rail rail_electric ship" speed="13.89" length="11.90" shape="620.18,290.39 623.16,288.95 625.42,287.45 627.16,285.46 628.57,282.55"/>
    </edge>
    <edge id=":4296330400_14" function="internal">
        <lane id=":4296330400_14_0" index="0" disallow="tram rail_urban rail rail_electric ship" speed="13.89" length="7.37" shape="620.18,290.39 624.57,288.61 627.10,287.90"/>
    </edge>
    <edge id=":4296330400_15" function="internal">
        <lane id=":4296330400_15_0" index="0" disallow="tram rail_urban rail rail_electric ship" speed="13.89" length="2.72" shape="620.18,290.39 621.69,290.36 622.51,290.82 622.55,291.09"/>
    </edge>
    <edge id=":4296330400_22" function="internal">
        <lane id=":4296330400_22_0" index="0" speed="13.89" length="6.31" shape="627.10,287.90 628.22,287.58 631.13,287.30 633.30,287.77"/>
    </edge>
    <edge id=":4296330400_23" function="internal">
        <lane id=":4296330400_23_0" index="0" speed="13.89" length="2.17" shape="622.55,291.09 622.64,291.74 622.08,293.15"/>
    </edge>
    <edge id=":4311466259_0" function="internal">
        <lane id=":4311466259_0_0" index="0" disallow="tram rail_urban rail rail_electric ship" speed="13.89" length="4.82" shape="549.16,0.41 549.65,-0.99 550.35,-1.60 551.25,-1.40 552.36,-0.41"/>
    </edge>
    <edge id=":4311466555_0" function="internal">
        <lane id=":4311466555_0_0" index="0" disallow="tram rail_urban rail rail_electric ship" speed="13.89" length="4.82" shape="106.45,638.62 105.06,639.16 104.15,639.02 103.71,638.21 103.74,636.73"/>
    </edge>
    <edge id=":4311611170_0" function="internal">
        <lane id=":4311611170_0_0" index="0" disallow="tram rail_urban rail rail_electric ship" speed="13.89" length="5.98" shape="239.67,385.34 238.82,384.04 237.71,383.30 236.32,383.13 234.68,383.52"/>
    </edge>
    <edge id=":4311611170_1" function="internal">
        <lane id=":4311611170_1_0" index="0" disallow="tram rail_urban rail rail_electric ship" speed="13.89" length="10.06" shape="239.67,385.34 235.12,376.36"/>
    </edge>
    <edge id=":4311611170_2" function="internal">
        <lane id=":4311611170_2_0" index="0" disallow="tram rail_urban rail rail_electric ship" speed="13.89" length="5.23" shape="239.67,385.34 238.82,382.52 239.00,380.25"/>
    </edge>
    <edge id=":4311611170_3" function="internal">
        <lane id=":4311611170_3_0" index="0" disallow="tram rail_urban rail rail_electric ship" speed="13.89" length="2.53" shape="239.67,385.34 239.80,383.85 240.33,383.09 240.45,383.09"/>
    </edge>
    <edge id=":4311611170_16" function="internal">
        <lane id=":4311611170_16_0" index="0" speed="13.89" length="5.25" shape="239.00,380.25 239.01,380.11 240.26,378.13 242.55,376.56"/>
    </edge>
    <edge id=":4311611170_17" function="internal">
        <lane id=":4311611170_17_0" index="0" speed="13.89" length="2.30" shape="240.45,383.09 241.25,383.06 242.58,383.75"/>
    </edge>
    <edge id=":4311611170_4" function="internal">
        <lane id=":4311611170_4_0" index="0" disallow="tram rail_urban rail rail_electric ship" speed="13.89" length="5.04" shape="243.98,379.53 242.87,380.29 242.27,381.24 242.17,382.40 242.58,383.75"/>
    </edge>
    <edge id=":4311611170_5" function="internal">
        <lane id=":4311611170_5_0" index="0" disallow="tram rail_urban rail rail_electric ship" speed="13.89" length="10.12" shape="243.98,379.53 234.68,383.52"/>
    </edge>
    <edge id=":4311611170_6" function="internal">
        <lane id=":4311611170_6_0" index="0" disallow="tram rail_urban rail rail_electric ship" speed="13.89" length="5.60" shape="243.98,379.53 241.21,380.41 238.81,380.17 238.57,380.01"/>
    </edge>
    <edge id=":4311611170_7" function="internal">
        <lane id=":4311611170_7_0" index="0" disallow="tram rail_urban rail rail_electric ship" speed="13.89" length="2.54" shape="243.98,379.53 242.51,379.33 241.78,378.76 241.78,378.63"/>
    </edge>
    <edge id=":4311611170_18" function="internal">
        <lane id=":4311611170_18_0" index="0" speed="13.89" length="5.11" shape="238.57,380.01 236.78,378.82 235.12,376.36"/>
    </edge>
    <edge id=":4311611170_19" function="internal">
        <lane id=":4311611170_19_0" index="0" speed="13.89" length="2.28" shape="241.78,378.63 241.79,377.84 242.55,376.56"/>
    </edge>
    <edge id=":4311611170_8" function="internal">
        <lane id=":4311611170_8_0" index="0" disallow="tram rail_urban rail rail_electric ship" speed="13.89" length="5.41" shape="238.09,374.91 238.93,376.17 239.95,376.86 241.16,376.99 242.55,376.56"/>
    </edge>
    <edge id=":4311611170_9" function="internal">
        <lane id=":4311611170_9_0" index="0" disallow="tram rail_urban rail rail_electric ship" speed="13.89" length="9.90" shape="238.09,374.91 242.58,383.75"/>
    </edge>
    <edge id=":4311611170_10" function="internal">
        <lane id=":4311611170_10_0" index="0" disallow="tram rail_urban rail rail_electric ship" speed="13.89" length="5.24" shape="238.09,374.91 239.01,377.77 238.76,380.00"/>
    </edge>
    <edge id=":4311611170_11" function="internal">
        <lane id=":4311611170_11_0" index="0" disallow="tram rail_urban rail rail_electric ship" speed="13.89" length="2.41" shape="238.09,374.91 237.89,376.39 237.33,377.12"/>
    </edge>
    <edge id=":4311611170_20" function="internal">