<?xml version="1.0" encoding="UTF-8"?>

<!-- generated on 05/18/18 20:43:08 by SUMO netconvert Version 0.32.0
<?xml version="1.0" encoding="UTF-8"?>

<configuration xmlns:xsi="http://www.w3.org/2001/XMLSchema-instance" xsi:noNamespaceSchemaLocation="http://sumo.dlr.de/xsd/netconvertConfiguration.xsd">

    <input>
        <osm-files value="horses2.osm"/>
    </input>

    <output>
        <output-file value="horses.net.xml"/>
    </output>

    <projection>
        <proj.utm value="true"/>
    </projection>

    <tls_building>
        <tls.join value="true"/>
        <tls.green.time value="30"/>
        <tls.yellow.time value="3"/>
        <tls.left-green.time value="0"/>
    </tls_building>

    <ramp_guessing>
        <ramps.guess value="true"/>
    </ramp_guessing>

    <processing>
        <geometry.remove value="true"/>
        <geometry.min-radius.fix value="true"/>
        <roundabouts.guess value="true"/>
        <junctions.join value="true"/>
    </processing>

</configuration>
-->

<net version="0.27" xmlns:xsi="http://www.w3.org/2001/XMLSchema-instance" xsi:noNamespaceSchemaLocation="http://sumo.dlr.de/xsd/net_file.xsd">

    <location netOffset="-424486.64,-3768453.60" convBoundary="0.00,0.00,1157.32,936.25" origBoundary="-117.819256,34.046362,-117.796580,34.064301" projParameter="+proj=utm +zone=11 +ellps=WGS84 +datum=WGS84 +units=m +no_defs"/>

    <type id="highway.bridleway" priority="1" numLanes="1" speed="2.78" allow="pedestrian" oneway="1" width="2.00"/>
    <type id="highway.bus_guideway" priority="1" numLanes="1" speed="8.33" allow="bus" oneway="1"/>
    <type id="highway.cycleway" priority="1" numLanes="1" speed="5.56" allow="bicycle" oneway="0" width="1.00"/>
    <type id="highway.footway" priority="1" numLanes="1" speed="2.78" allow="pedestrian" oneway="1" width="2.00"/>
    <type id="highway.ford" priority="1" numLanes="1" speed="2.78" allow="army" oneway="0"/>
    <type id="highway.living_street" priority="3" numLanes="1" speed="2.78" disallow="tram rail_urban rail rail_electric ship" oneway="0"/>
    <type id="highway.motorway" priority="13" numLanes="2" speed="44.44" allow="private emergency authority army vip passenger hov taxi bus coach delivery truck trailer motorcycle evehicle custom1 custom2" oneway="1"/>
    <type id="highway.motorway_link" priority="12" numLanes="1" speed="22.22" allow="private emergency authority army vip passenger hov taxi bus coach delivery truck trailer motorcycle evehicle custom1 custom2" oneway="1"/>
    <type id="highway.path" priority="1" numLanes="1" speed="2.78" allow="bicycle pedestrian" oneway="1" width="2.00"/>
    <type id="highway.pedestrian" priority="1" numLanes="1" speed="2.78" allow="pedestrian" oneway="1" width="2.00"/>
    <type id="highway.primary" priority="9" numLanes="2" speed="27.78" disallow="tram rail_urban rail rail_electric ship" oneway="0"/>
    <type id="highway.primary_link" priority="8" numLanes="1" speed="22.22" disallow="tram rail_urban rail rail_electric ship" oneway="0"/>
    <type id="highway.raceway" priority="14" numLanes="2" speed="83.33" allow="vip" oneway="0"/>
    <type id="highway.residential" priority="4" numLanes="1" speed="13.89" disallow="tram rail_urban rail rail_electric ship" oneway="0"/>
    <type id="highway.secondary" priority="7" numLanes="2" speed="27.78" disallow="tram rail_urban rail rail_electric ship" oneway="0"/>
    <type id="highway.secondary_link" priority="6" numLanes="1" speed="22.22" disallow="tram rail_urban rail rail_electric ship" oneway="0"/>
    <type id="highway.service" priority="2" numLanes="1" speed="5.56" allow="delivery bicycle pedestrian" oneway="0"/>
    <type id="highway.services" priority="1" numLanes="1" speed="8.33" disallow="tram rail_urban rail rail_electric ship" oneway="0"/>
    <type id="highway.stairs" priority="1" numLanes="1" speed="1.39" allow="pedestrian" oneway="1" width="2.00"/>
    <type id="highway.step" priority="1" numLanes="1" speed="1.39" allow="pedestrian" oneway="1" width="2.00"/>
    <type id="highway.steps" priority="1" numLanes="1" speed="1.39" allow="pedestrian" oneway="1" width="2.00"/>
    <type id="highway.tertiary" priority="6" numLanes="1" speed="22.22" disallow="tram rail_urban rail rail_electric ship" oneway="0"/>
    <type id="highway.tertiary_link" priority="5" numLanes="1" speed="22.22" disallow="tram rail_urban rail rail_electric ship" oneway="0"/>
    <type id="highway.track" priority="1" numLanes="1" speed="5.56" disallow="tram rail_urban rail rail_electric ship" oneway="0"/>
    <type id="highway.trunk" priority="11" numLanes="2" speed="27.78" disallow="tram rail_urban rail rail_electric bicycle pedestrian ship" oneway="0"/>
    <type id="highway.trunk_link" priority="10" numLanes="1" speed="22.22" disallow="tram rail_urban rail rail_electric bicycle pedestrian ship" oneway="0"/>
    <type id="highway.unclassified" priority="5" numLanes="1" speed="13.89" disallow="tram rail_urban rail rail_electric ship" oneway="0"/>
    <type id="highway.unsurfaced" priority="1" numLanes="1" speed="8.33" disallow="tram rail_urban rail rail_electric ship" oneway="0"/>
    <type id="railway.light_rail" priority="15" numLanes="1" speed="27.78" allow="rail_urban" oneway="1"/>
    <type id="railway.preserved" priority="15" numLanes="1" speed="27.78" allow="rail" oneway="1"/>
    <type id="railway.rail" priority="15" numLanes="1" speed="83.33" allow="rail rail_electric" oneway="1"/>
    <type id="railway.subway" priority="15" numLanes="1" speed="27.78" allow="rail_urban" oneway="1"/>
    <type id="railway.tram" priority="15" numLanes="1" speed="13.89" allow="tram" oneway="1"/>

    <edge id=":-38980_0" function="internal">
        <lane id=":-38980_0_0" index="0" disallow="tram rail_urban rail rail_electric ship" speed="13.89" length="5.13" shape="335.60,622.15 334.40,621.40 333.25,621.21 332.15,621.57 331.10,622.49"/>
    </edge>
    <edge id=":-38980_1" function="internal">
        <lane id=":-38980_1_0" index="0" disallow="tram rail_urban rail rail_electric ship" speed="13.89" length="9.60" shape="335.60,622.15 328.26,615.96"/>
    </edge>
    <edge id=":-38980_2" function="internal">
        <lane id=":-38980_2_0" index="0" disallow="tram rail_urban rail rail_electric ship" speed="13.89" length="5.21" shape="335.60,622.15 333.69,620.01 332.94,617.79"/>
    </edge>
    <edge id=":-38980_3" function="internal">
        <lane id=":-38980_3_0" index="0" disallow="tram rail_urban rail rail_electric ship" speed="13.89" length="2.41" shape="335.60,622.15 335.18,620.72 335.40,619.83"/>
    </edge>
    <edge id=":-38980_16" function="internal">
        <lane id=":-38980_16_0" index="0" speed="13.89" length="5.21" shape="332.94,617.79 333.35,615.48 334.92,613.08"/>
    </edge>
    <edge id=":-38980_17" function="internal">
        <lane id=":-38980_17_0" index="0" speed="13.89" length="2.41" shape="335.40,619.83 336.25,619.46 337.72,619.63"/>
    </edge>
    <edge id=":-38980_4" function="internal">
        <lane id=":-38980_4_0" index="0" disallow="tram rail_urban rail rail_electric ship" speed="13.89" length="5.02" shape="337.40,615.26 336.64,616.41 336.45,617.53 336.81,618.60 337.72,619.63"/>
    </edge>
    <edge id=":-38980_5" function="internal">
        <lane id=":-38980_5_0" index="0" disallow="tram rail_urban rail rail_electric ship" speed="13.89" length="9.59" shape="337.40,615.26 331.10,622.49"/>
    </edge>
    <edge id=":-38980_6" function="internal">
        <lane id=":-38980_6_0" index="0" disallow="tram rail_urban rail rail_electric ship" speed="13.89" length="5.21" shape="337.40,615.26 335.23,617.11 332.99,617.85"/>
    </edge>
    <edge id=":-38980_7" function="internal">
        <lane id=":-38980_7_0" index="0" disallow="tram rail_urban rail rail_electric ship" speed="13.89" length="2.41" shape="337.40,615.26 335.96,615.64 335.07,615.41"/>
    </edge>
    <edge id=":-38980_18" function="internal">
        <lane id=":-38980_18_0" index="0" speed="13.89" length="5.20" shape="332.99,617.85 330.66,617.46 328.26,615.96"/>
    </edge>
    <edge id=":-38980_19" function="internal">
        <lane id=":-38980_19_0" index="0" speed="13.89" length="2.41" shape="335.07,615.41 334.72,614.55 334.92,613.08"/>
    </edge>
    <edge id=":-38980_8" function="internal">
        <lane id=":-38980_8_0" index="0" disallow="tram rail_urban rail rail_electric ship" speed="13.89" length="5.16" shape="330.38,613.44 331.58,614.18 332.73,614.37 333.84,614.00 334.92,613.08"/>
    </edge>
    <edge id=":-38980_9" function="internal">
        <lane id=":-38980_9_0" index="0" disallow="tram rail_urban rail rail_electric ship" speed="13.89" length="9.60" shape="330.38,613.44 337.72,619.63"/>
    </edge>
    <edge id=":-38980_10" function="internal">
        <lane id=":-38980_10_0" index="0" disallow="tram rail_urban rail rail_electric ship" speed="13.89" length="5.19" shape="330.38,613.44 332.28,615.56 333.03,617.78"/>
    </edge>
    <edge id=":-38980_11" function="internal">
        <lane id=":-38980_11_0" index="0" disallow="tram rail_urban rail rail_electric ship" speed="13.89" length="2.41" shape="330.38,613.44 330.80,614.86 330.58,615.76"/>
    </edge>
    <edge id=":-38980_20" function="internal">
        <lane id=":-38980_20_0" index="0" speed="13.89" length="5.19" shape="333.03,617.78 332.64,620.09 331.10,622.49"/>
    </edge>
    <edge id=":-38980_21" function="internal">
        <lane id=":-38980_21_0" index="0" speed="13.89" length="2.41" shape="330.58,615.76 329.73,616.13 328.26,615.96"/>
    </edge>
    <edge id=":-38980_12" function="internal">
        <lane id=":-38980_12_0" index="0" disallow="tram rail_urban rail rail_electric ship" speed="13.89" length="5.01" shape="328.60,620.33 329.34,619.17 329.53,618.06 329.17,616.99 328.26,615.96"/>
    </edge>
    <edge id=":-38980_13" function="internal">
        <lane id=":-38980_13_0" index="0" disallow="tram rail_urban rail rail_electric ship" speed="13.89" length="9.62" shape="328.60,620.33 334.92,613.08"/>
    </edge>
    <edge id=":-38980_14" function="internal">
        <lane id=":-38980_14_0" index="0" disallow="tram rail_urban rail rail_electric ship" speed="13.89" length="5.32" shape="328.60,620.33 330.74,618.46 332.98,617.73 333.11,617.75"/>
    </edge>
    <edge id=":-38980_15" function="internal">
        <lane id=":-38980_15_0" index="0" disallow="tram rail_urban rail rail_electric ship" speed="13.89" length="2.41" shape="328.60,620.33 330.03,619.93 330.93,620.16"/>
    </edge>
    <edge id=":-38980_22" function="internal">
        <lane id=":-38980_22_0" index="0" speed="13.89" length="5.08" shape="333.11,617.75 335.31,618.11 337.72,619.63"/>
    </edge>
    <edge id=":-38980_23" function="internal">
        <lane id=":-38980_23_0" index="0" speed="13.89" length="2.41" shape="330.93,620.16 331.28,621.01 331.10,622.49"/>
    </edge>
    <edge id=":-38982_0" function="internal">
        <lane id=":-38982_0_0" index="0" disallow="tram rail_urban rail rail_electric ship" speed="22.22" length="9.51" shape="308.75,652.64 301.94,646.00"/>
    </edge>
    <edge id=":-38982_1" function="internal">
        <lane id=":-38982_1_0" index="0" disallow="tram rail_urban rail rail_electric ship" speed="18.06" length="5.06" shape="308.75,652.64 307.10,650.46 306.53,648.21"/>
    </edge>
    <edge id=":-38982_2" function="internal">
        <lane id=":-38982_2_0" index="0" disallow="tram rail_urban rail rail_electric ship" speed="22.22" length="2.41" shape="308.75,652.64 308.44,651.19 308.72,650.31"/>
    </edge>
    <edge id=":-38982_9" function="internal">
        <lane id=":-38982_9_0" index="0" speed="18.06" length="5.29" shape="306.53,648.21 307.04,645.87 308.63,643.45"/>
    </edge>
    <edge id=":-38982_10" function="internal">
        <lane id=":-38982_10_0" index="0" speed="22.22" length="2.41" shape="308.72,650.31 309.59,650.00 311.06,650.28"/>
    </edge>
    <edge id=":-38982_3" function="internal">
        <lane id=":-38982_3_0" index="0" disallow="tram rail_urban rail rail_electric ship" speed="18.06" length="5.25" shape="311.13,645.61 310.29,646.86 310.00,648.06 310.25,649.20 311.06,650.28"/>
    </edge>
    <edge id=":-38982_4" function="internal">
        <lane id=":-38982_4_0" index="0" disallow="tram rail_urban rail rail_electric ship" speed="18.06" length="10.63" shape="311.13,645.61 308.91,647.53 306.64,648.24 304.32,647.73 301.94,646.00"/>
    </edge>
    <edge id=":-38982_5" function="internal">
        <lane id=":-38982_5_0" index="0" disallow="tram rail_urban rail rail_electric ship" speed="13.89" length="4.82" shape="311.13,645.61 309.69,646.00 308.80,645.78 308.44,644.92 308.63,643.45"/>
    </edge>
    <edge id=":-38982_6" function="internal">
        <lane id=":-38982_6_0" index="0" disallow="tram rail_urban rail rail_electric ship" speed="18.06" length="5.07" shape="304.25,643.64 305.38,644.46 306.49,644.71 307.57,644.37 308.63,643.45"/>
    </edge>
    <edge id=":-38982_7" function="internal">
        <lane id=":-38982_7_0" index="0" disallow="tram rail_urban rail rail_electric ship" speed="22.22" length="9.51" shape="304.25,643.64 311.06,650.28"/>
    </edge>
    <edge id=":-38982_8" function="internal">
        <lane id=":-38982_8_0" index="0" disallow="tram rail_urban rail rail_electric ship" speed="22.22" length="2.41" shape="304.25,643.64 304.56,645.09 304.28,645.97"/>
    </edge>
    <edge id=":-38982_11" function="internal">
        <lane id=":-38982_11_0" index="0" speed="22.22" length="2.41" shape="304.28,645.97 303.40,646.27 301.94,646.00"/>
    </edge>
    <edge id=":-38984_0" function="internal">
        <lane id=":-38984_0_0" index="0" disallow="tram rail_urban rail rail_electric ship" speed="13.89" length="4.82" shape="359.62,584.97 361.06,584.59 361.95,584.82 362.30,585.67 362.10,587.15"/>
    </edge>
    <edge id=":-38986_0" function="internal">
        <lane id=":-38986_0_0" index="0" disallow="tram rail_urban rail rail_electric ship" speed="13.89" length="4.82" shape="632.52,655.61 632.34,654.13 632.70,653.28 633.59,653.06 635.02,653.46"/>
    </edge>
    <edge id=":-38988_0" function="internal">
        <lane id=":-38988_0_0" index="0" disallow="tram rail_urban rail rail_electric ship" speed="13.89" length="5.29" shape="676.95,707.51 675.90,706.54 674.77,706.14 673.57,706.31 672.30,707.04"/>
    </edge>
    <edge id=":-38988_1" function="internal">
        <lane id=":-38988_1_0" index="0" disallow="tram rail_urban rail rail_electric ship" speed="13.89" length="9.70" shape="676.95,707.51 670.73,700.06"/>
    </edge>
    <edge id=":-38988_2" function="internal">
        <lane id=":-38988_2_0" index="0" disallow="tram rail_urban rail rail_electric ship" speed="13.89" length="5.22" shape="676.95,707.51 675.47,705.05 675.16,702.72"/>
    </edge>
    <edge id=":-38988_3" function="internal">
        <lane id=":-38988_3_0" index="0" disallow="tram rail_urban rail rail_electric ship" speed="13.89" length="2.41" shape="676.95,707.51 676.81,706.03 677.19,705.19"/>
    </edge>
    <edge id=":-38988_16" function="internal">
        <lane id=":-38988_16_0" index="0" speed="13.89" length="5.22" shape="675.16,702.72 676.00,700.52 677.99,698.46"/>
    </edge>
    <edge id=":-38988_17" function="internal">
        <lane id=":-38988_17_0" index="0" speed="13.89" length="2.41" shape="677.19,705.19 678.09,704.99 679.51,705.43"/>
    </edge>
    <edge id=":-38988_4" function="internal">
        <lane id=":-38988_4_0" index="0" disallow="tram rail_urban rail rail_electric ship" speed="13.89" length="5.03" shape="680.01,701.07 679.05,702.07 678.65,703.12 678.80,704.24 679.51,705.43"/>
    </edge>
    <edge id=":-38988_5" function="internal">
        <lane id=":-38988_5_0" index="0" disallow="tram rail_urban rail rail_electric ship" speed="13.89" length="9.75" shape="680.01,701.07 672.30,707.04"/>
    </edge>
    <edge id=":-38988_6" function="internal">
        <lane id=":-38988_6_0" index="0" disallow="tram rail_urban rail rail_electric ship" speed="13.89" length="5.24" shape="680.01,701.07 677.54,702.48 675.16,702.78"/>
    </edge>
    <edge id=":-38988_7" function="internal">
        <lane id=":-38988_7_0" index="0" disallow="tram rail_urban rail rail_electric ship" speed="13.89" length="2.41" shape="680.01,701.07 678.53,701.18 677.70,700.78"/>
    </edge>
    <edge id=":-38988_18" function="internal">
        <lane id=":-38988_18_0" index="0" speed="13.89" length="5.30" shape="675.16,702.78 672.89,701.97 670.73,700.06"/>
    </edge>
    <edge id=":-38988_19" function="internal">
        <lane id=":-38988_19_0" index="0" speed="13.89" length="2.41" shape="677.70,700.78 677.52,699.87 677.99,698.46"/>
    </edge>
    <edge id=":-38988_8" function="internal">
        <lane id=":-38988_8_0" index="0" disallow="tram rail_urban rail rail_electric ship" speed="13.89" length="5.41" shape="673.23,697.91 674.35,698.90 675.51,699.32 676.73,699.18 677.99,698.46"/>
    </edge>
    <edge id=":-38988_9" function="internal">
        <lane id=":-38988_9_0" index="0" disallow="tram rail_urban rail rail_electric ship" speed="13.89" length="9.79" shape="673.23,697.91 679.51,705.43"/>
    </edge>
    <edge id=":-38988_10" function="internal">
        <lane id=":-38988_10_0" index="0" disallow="tram rail_urban rail rail_electric ship" speed="13.89" length="5.42" shape="673.23,697.91 674.80,700.38 675.17,702.72 675.13,702.83"/>
    </edge>
    <edge id=":-38988_11" function="internal">
        <lane id=":-38988_11_0" index="0" disallow="tram rail_urban rail rail_electric ship" speed="13.89" length="2.41" shape="673.23,697.91 673.41,699.39 673.05,700.24"/>
    </edge>
    <edge id=":-38988_20" function="internal">
        <lane id=":-38988_20_0" index="0" speed="13.89" length="5.17" shape="675.13,702.83 674.34,704.94 672.30,707.04"/>
    </edge>
    <edge id=":-38988_21" function="internal">
        <lane id=":-38988_21_0" index="0" speed="13.89" length="2.41" shape="673.05,700.24 672.16,700.46 670.73,700.06"/>
    </edge>
    <edge id=":-38988_12" function="internal">
        <lane id=":-38988_12_0" index="0" disallow="tram rail_urban rail rail_electric ship" speed="13.89" length="5.06" shape="670.28,704.43 671.26,703.42 671.65,702.36 671.48,701.24 670.73,700.06"/>
    </edge>
    <edge id=":-38988_13" function="internal">
        <lane id=":-38988_13_0" index="0" disallow="tram rail_urban rail rail_electric ship" speed="13.89" length="9.75" shape="670.28,704.43 677.99,698.46"/>
    </edge>
    <edge id=":-38988_14" function="internal">
        <lane id=":-38988_14_0" index="0" disallow="tram rail_urban rail rail_electric ship" speed="13.89" length="5.40" shape="670.28,704.43 672.80,702.99 675.17,702.68 675.28,702.72"/>
    </edge>
    <edge id=":-38988_15" function="internal">
        <lane id=":-38988_15_0" index="0" disallow="tram rail_urban rail rail_electric ship" speed="13.89" length="2.41" shape="670.28,704.43 671.77,704.32 672.60,704.72"/>
    </edge>
    <edge id=":-38988_22" function="internal">
        <lane id=":-38988_22_0" index="0" speed="13.89" length="5.13" shape="675.28,702.72 677.41,703.49 679.51,705.43"/>
    </edge>
    <edge id=":-38988_23" function="internal">
        <lane id=":-38988_23_0" index="0" speed="13.89" length="2.41" shape="672.60,704.72 672.78,705.63 672.30,707.04"/>
    </edge>
    <edge id=":-38990_0" function="internal">
        <lane id=":-38990_0_0" index="0" disallow="tram rail_urban rail rail_electric ship" speed="13.89" length="4.82" shape="728.65,766.03 728.79,767.52 728.41,768.36 727.51,768.56 726.09,768.11"/>
    </edge>
    <edge id=":122472362_0" function="internal">
        <lane id=":122472362_0_0" index="0" disallow="tram rail_urban rail rail_electric ship" speed="13.89" length="4.82" shape="67.87,885.77 66.38,885.79 65.58,885.35 65.45,884.43 66.00,883.05"/>
    </edge>
    <edge id=":122472365_0" function="internal">
        <lane id=":122472365_0_0" index="0" disallow="tram rail_urban rail rail_electric ship" speed="13.89" length="5.20" shape="188.91,806.89 188.05,805.75 187.04,805.21 185.88,805.26 184.57,805.91"/>
    </edge>
    <edge id=":122472365_1" function="internal">
        <lane id=":122472365_1_0" index="0" disallow="tram rail_urban rail rail_electric ship" speed="13.89" length="9.89" shape="188.91,806.89 187.49,804.33 186.42,802.62 185.18,801.04 183.24,798.84"/>
    </edge>
    <edge id=":122472365_2" function="internal">
        <lane id=":122472365_2_0" index="0" disallow="tram rail_urban rail rail_electric ship" speed="13.89" length="10.39" shape="188.91,806.89 187.84,804.16 187.76,801.71 188.66,799.55 190.55,797.68"/>
    </edge>
    <edge id=":122472365_3" function="internal">
        <lane id=":122472365_3_0" index="0" disallow="tram rail_urban rail rail_electric ship" speed="13.89" length="4.82" shape="188.91,806.89 189.04,805.41 189.57,804.66 190.49,804.63 191.81,805.32"/>
    </edge>
    <edge id=":122472365_4" function="internal">
        <lane id=":122472365_4_0" index="0" disallow="tram rail_urban rail rail_electric ship" speed="13.89" length="5.55" shape="192.49,800.36 191.54,801.32 191.11,802.47 191.20,803.81 191.81,805.32"/>
    </edge>
    <edge id=":122472365_5" function="internal">
        <lane id=":122472365_5_0" index="0" disallow="tram rail_urban rail rail_electric ship" speed="13.89" length="9.67" shape="192.49,800.36 184.57,805.91"/>
    </edge>
    <edge id=":122472365_6" function="internal">
        <lane id=":122472365_6_0" index="0" disallow="tram rail_urban rail rail_electric ship" speed="13.89" length="5.13" shape="192.49,800.36 190.11,801.56 187.77,801.71 187.66,801.67"/>
    </edge>
    <edge id=":122472365_7" function="internal">
        <lane id=":122472365_7_0" index="0" disallow="tram rail_urban rail rail_electric ship" speed="13.89" length="2.41" shape="192.49,800.36 191.00,800.41 190.18,799.99"/>
    </edge>
    <edge id=":122472365_16" function="internal">
        <lane id=":122472365_16_0" index="0" speed="13.89" length="5.32" shape="187.66,801.67 185.48,800.81 183.24,798.84"/>
    </edge>
    <edge id=":122472365_17" function="internal">
        <lane id=":122472365_17_0" index="0" speed="13.89" length="2.41" shape="190.18,799.99 190.03,799.08 190.55,797.68"/>
    </edge>
    <edge id=":122472365_8" function="internal">
        <lane id=":122472365_8_0" index="0" disallow="tram rail_urban rail rail_electric ship" speed="13.89" length="5.52" shape="185.71,796.65 186.93,797.75 188.15,798.29 189.35,798.27 190.55,797.68"/>
    </edge>
    <edge id=":122472365_9" function="internal">
        <lane id=":122472365_9_0" index="0" disallow="tram rail_urban rail rail_electric ship" speed="13.89" length="10.64" shape="185.71,796.65 187.73,798.96 189.11,800.74 190.32,802.64 191.81,805.32"/>
    </edge>
    <edge id=":122472365_10" function="internal">
        <lane id=":122472365_10_0" index="0" disallow="tram rail_urban rail rail_electric ship" speed="13.89" length="10.99" shape="185.71,796.65 187.40,799.20 187.77,801.60 186.83,803.84 184.57,805.91"/>
    </edge>
    <edge id=":122472365_11" function="internal">
        <lane id=":122472365_11_0" index="0" disallow="tram rail_urban rail rail_electric ship" speed="13.89" length="4.82" shape="185.71,796.65 185.91,798.12 185.57,798.97 184.68,799.21 183.24,798.84"/>
    </edge>
    <edge id=":122472365_12" function="internal">
        <lane id=":122472365_12_0" index="0" disallow="tram rail_urban rail rail_electric ship" speed="13.89" length="5.16" shape="182.71,803.19 183.77,802.22 184.21,801.17 184.03,800.04 183.24,798.84"/>
    </edge>
    <edge id=":122472365_13" function="internal">
        <lane id=":122472365_13_0" index="0" disallow="tram rail_urban rail rail_electric ship" speed="13.89" length="9.59" shape="182.71,803.19 190.55,797.68"/>
    </edge>
    <edge id=":122472365_14" function="internal">
        <lane id=":122472365_14_0" index="0" disallow="tram rail_urban rail rail_electric ship" speed="13.89" length="5.33" shape="182.71,803.19 185.45,801.84 187.72,801.75"/>
    </edge>
    <edge id=":122472365_15" function="internal">
        <lane id=":122472365_15_0" index="0" disallow="tram rail_urban rail rail_electric ship" speed="13.89" length="2.41" shape="182.71,803.19 184.19,803.17 185.00,803.62"/>
    </edge>
    <edge id=":122472365_18" function="internal">
        <lane id=":122472365_18_0" index="0" speed="13.89" length="5.60" shape="187.72,801.75 187.88,801.74 190.00,802.90 191.81,805.32"/>
    </edge>
    <edge id=":122472365_19" function="internal">
        <lane id=":122472365_19_0" index="0" speed="13.89" length="2.41" shape="185.00,803.62 185.13,804.53 184.57,805.91"/>
    </edge>
    <edge id=":122472368_0" function="internal">
        <lane id=":122472368_0_0" index="0" disallow="tram rail_urban rail rail_electric ship" speed="13.89" length="5.18" shape="272.08,747.08 271.19,745.97 270.17,745.46 269.01,745.53 267.72,746.20"/>
    </edge>
    <edge id=":122472368_1" function="internal">
        <lane id=":122472368_1_0" index="0" disallow="tram rail_urban rail rail_electric ship" speed="13.89" length="9.83" shape="272.08,747.08 270.59,744.57 269.49,742.90 268.24,741.34 266.32,739.15"/>
    </edge>
    <edge id=":122472368_2" function="internal">
        <lane id=":122472368_2_0" index="0" allow="delivery bicycle pedestrian" speed="9.73" length="5.36" shape="272.08,747.08 270.94,744.37 270.87,741.95"/>
    </edge>
    <edge id=":122472368_3" function="internal">
        <lane id=":122472368_3_0" index="0" disallow="tram rail_urban rail rail_electric ship" speed="13.89" length="2.41" shape="272.08,747.08 272.17,745.60 272.67,744.82"/>
    </edge>
    <edge id=":122472368_16" function="internal">
        <lane id=":122472368_16_0" index="0" speed="9.73" length="5.09" shape="270.87,741.95 271.86,739.83 273.92,738.00"/>
    </edge>
    <edge id=":122472368_17" function="internal">
        <lane id=":122472368_17_0" index="0" speed="13.89" length="2.41" shape="272.67,744.82 273.59,744.76 274.93,745.42"/>
    </edge>
    <edge id=":122472368_4" function="internal">
        <lane id=":122472368_4_0" index="0" disallow="tram rail_urban rail rail_electric ship" speed="9.73" length="5.32" shape="275.72,740.77 274.72,741.68 274.25,742.75 274.32,744.00 274.93,745.42"/>
    </edge>
    <edge id=":122472368_5" function="internal">
        <lane id=":122472368_5_0" index="0" disallow="tram rail_urban rail rail_electric ship" speed="9.73" length="9.67" shape="275.72,740.77 267.72,746.20"/>
    </edge>
    <edge id=":122472368_6" function="internal">
        <lane id=":122472368_6_0" index="0" disallow="tram rail_urban rail rail_electric ship" speed="9.73" length="10.55" shape="275.72,740.77 273.24,741.90 270.84,742.00 268.54,741.08 266.32,739.15"/>
    </edge>
    <edge id=":122472368_7" function="internal">
        <lane id=":122472368_7_0" index="0" allow="delivery bicycle pedestrian" speed="5.56" length="4.82" shape="275.72,740.77 274.23,740.75 273.43,740.28 273.33,739.37 273.92,738.00"/>
    </edge>
    <edge id=":122472368_8" function="internal">
        <lane id=":122472368_8_0" index="0" allow="delivery bicycle pedestrian" speed="9.73" length="5.80" shape="268.78,736.95 270.03,738.06 271.30,738.60 272.60,738.58 273.92,738.00"/>
    </edge>
    <edge id=":122472368_9" function="internal">
        <lane id=":122472368_9_0" index="0" disallow="tram rail_urban rail rail_electric ship" speed="13.89" length="10.49" shape="268.78,736.95 270.79,739.24 272.16,740.97 273.37,742.80 274.93,745.42"/>
    </edge>
    <edge id=":122472368_10" function="internal">
        <lane id=":122472368_10_0" index="0" disallow="tram rail_urban rail rail_electric ship" speed="13.89" length="5.56" shape="268.78,736.95 270.45,739.49 270.84,741.87 270.80,741.97"/>
    </edge>
    <edge id=":122472368_11" function="internal">
        <lane id=":122472368_11_0" index="0" disallow="tram rail_urban rail rail_electric ship" speed="13.89" length="2.41" shape="268.78,736.95 268.99,738.43 268.64,739.28"/>
    </edge>
    <edge id=":122472368_18" function="internal">
        <lane id=":122472368_18_0" index="0" speed="13.89" length="5.35" shape="270.80,741.97 269.92,744.11 267.72,746.20"/>
    </edge>
    <edge id=":122472368_19" function="internal">
        <lane id=":122472368_19_0" index="0" speed="13.89" length="2.41" shape="268.64,739.28 267.75,739.52 266.32,739.15"/>
    </edge>
    <edge id=":122472368_12" function="internal">
        <lane id=":122472368_12_0" index="0" disallow="tram rail_urban rail rail_electric ship" speed="13.89" length="5.14" shape="265.82,743.50 266.85,742.52 267.28,741.47 267.10,740.34 266.32,739.15"/>
    </edge>
    <edge id=":122472368_13" function="internal">
        <lane id=":122472368_13_0" index="0" allow="delivery bicycle pedestrian" speed="9.73" length="9.80" shape="265.82,743.50 273.92,738.00"/>
    </edge>
    <edge id=":122472368_14" function="internal">
        <lane id=":122472368_14_0" index="0" disallow="tram rail_urban rail rail_electric ship" speed="13.89" length="10.84" shape="265.82,743.50 268.51,742.12 270.93,741.98 273.07,743.08 274.93,745.42"/>
    </edge>
    <edge id=":122472368_15" function="internal">
        <lane id=":122472368_15_0" index="0" disallow="tram rail_urban rail rail_electric ship" speed="13.89" length="4.82" shape="265.82,743.50 267.30,743.46 268.12,743.90 268.25,744.81 267.72,746.20"/>
    </edge>
    <edge id=":122472397_0" function="internal">
        <lane id=":122472397_0_0" index="0" disallow="tram rail_urban rail rail_electric ship" speed="13.89" length="7.99" shape="154.99,643.63 152.98,642.39 151.55,641.61 150.07,640.94 147.88,640.05"/>