<?xml version="1.0" encoding="UTF-8"?>

<!-- generated on 02/23/18 16:36:34 by SUMO netconvert Version 0.30.0
<?xml version="1.0" encoding="UTF-8"?>

<configuration xmlns:xsi="http://www.w3.org/2001/XMLSchema-instance" xsi:noNamespaceSchemaLocation="http://sumo.dlr.de/xsd/netconvertConfiguration.xsd">

    <input>
        <node-files value="twoint.nod.xml"/>
        <edge-files value="twoint.edg.xml"/>
    </input>

    <output>
        <output-file value="twoint.net.xml"/>
    </output>

</configuration>
-->

<net version="0.27" xmlns:xsi="http://www.w3.org/2001/XMLSchema-instance" xsi:noNamespaceSchemaLocation="http://sumo.dlr.de/xsd/net_file.xsd">

    <location netOffset="10.00,2010.00" convBoundary="0.00,0.00,1520.00,2010.00" origBoundary="-10.00,-2010.00,1510.00,0.00" projParameter="!"/>

    <edge id=":1_0" function="internal">
        <lane id=":1_0_0" index="0" speed="19.44" length="0.10" shape="10.00,1011.65 10.00,1011.65"/>
    </edge>
    <edge id=":1_1" function="internal">
        <lane id=":1_1_0" index="0" speed="15.28" length="4.82" shape="10.00,1011.65 8.76,1010.83 8.35,1010.00 8.76,1009.18 10.00,1008.35"/>
    </edge>
    <edge id=":1_2" function="internal">
        <lane id=":1_2_0" index="0" speed="11.11" length="0.10" shape="10.00,1008.35 10.00,1008.35"/>
    </edge>
    <edge id=":1_3" function="internal">
        <lane id=":1_3_0" index="0" speed="15.28" length="4.82" shape="10.00,1008.35 11.24,1009.18 11.65,1010.00 11.24,1010.83 10.00,1011.65"/>
    </edge>
    <edge id=":2_0" function="internal">
        <lane id=":2_0_0" index="0" speed="19.44" length="3.30" shape="511.65,2010.00 508.35,2010.00"/>
    </edge>
    <edge id=":2_1" function="internal">
        <lane id=":2_1_0" index="0" speed="15.28" length="4.82" shape="511.65,2010.00 510.82,2011.24 510.00,2011.65 509.18,2011.24 508.35,2010.00"/>
    </edge>
    <edge id=":2_2" function="internal">
        <lane id=":2_2_0" index="0" speed="11.11" length="3.30" shape="511.65,2010.00 508.35,2010.00"/>
    </edge>
    <edge id=":2_3" function="internal">
        <lane id=":2_3_0" index="0" speed="15.28" length="4.82" shape="511.65,2010.00 510.82,2011.24 510.00,2011.65 509.18,2011.24 508.35,2010.00"/>
    </edge>
    <edge id=":3_0" function="internal">
        <lane id=":3_0_0" index="0" speed="15.28" length="5.00" shape="508.35,1014.75 508.16,1013.39 507.58,1012.43 506.61,1011.84 505.25,1011.65"/>
    </edge>
    <edge id=":3_1" function="internal">
        <lane id=":3_1_0" index="0" speed="15.28" length="9.50" shape="508.35,1014.75 508.35,1005.25"/>
    </edge>
    <edge id=":3_2" function="internal">
        <lane id=":3_2_0" index="0" speed="11.11" length="10.32" shape="508.35,1014.75 508.75,1011.95 509.95,1009.95 511.95,1008.75 514.75,1008.35"/>
    </edge>
    <edge id=":3_3" function="internal">
        <lane id=":3_3_0" index="0" speed="15.28" length="4.82" shape="508.35,1014.75 509.18,1013.51 510.00,1013.10 510.82,1013.51 511.65,1014.75"/>
    </edge>
    <edge id=":3_4" function="internal">
        <lane id=":3_4_0" index="0" speed="19.44" length="5.00" shape="514.75,1011.65 513.39,1011.84 512.42,1012.43 511.84,1013.39 511.65,1014.75"/>
    </edge>
    <edge id=":3_5" function="internal">
        <lane id=":3_5_0" index="0" speed="19.44" length="9.50" shape="514.75,1011.65 505.25,1011.65"/>
    </edge>
    <edge id=":3_6" function="internal">
        <lane id=":3_6_0" index="0" speed="19.44" length="5.28" shape="514.75,1011.65 511.95,1011.25 509.95,1010.05 509.89,1009.95"/>
    </edge>
    <edge id=":3_7" function="internal">
        <lane id=":3_7_0" index="0" speed="15.28" length="2.41" shape="514.75,1011.65 513.51,1010.83 513.10,1010.00"/>
    </edge>
    <edge id=":3_16" function="internal">
        <lane id=":3_16_0" index="0" speed="19.44" length="5.04" shape="509.89,1009.95 508.75,1008.05 508.35,1005.25"/>
    </edge>
    <edge id=":3_17" function="internal">
        <lane id=":3_17_0" index="0" speed="15.28" length="2.41" shape="513.10,1010.00 513.51,1009.18 514.75,1008.35"/>
    </edge>
    <edge id=":3_8" function="internal">
        <lane id=":3_8_0" index="0" speed="11.11" length="5.00" shape="511.65,1005.25 511.84,1006.61 512.42,1007.57 513.39,1008.16 514.75,1008.35"/>
    </edge>
    <edge id=":3_9" function="internal">
        <lane id=":3_9_0" index="0" speed="15.28" length="9.50" shape="511.65,1005.25 511.65,1014.75"/>
    </edge>
    <edge id=":3_10" function="internal">
        <lane id=":3_10_0" index="0" speed="15.28" length="10.32" shape="511.65,1005.25 511.25,1008.05 510.05,1010.05 508.05,1011.25 505.25,1011.65"/>
    </edge>
    <edge id=":3_11" function="internal">
        <lane id=":3_11_0" index="0" speed="15.28" length="4.82" shape="511.65,1005.25 510.82,1006.49 510.00,1006.90 509.18,1006.49 508.35,1005.25"/>
    </edge>
    <edge id=":3_12" function="internal">
        <lane id=":3_12_0" index="0" speed="15.28" length="5.00" shape="505.25,1008.35 506.61,1008.16 507.58,1007.58 508.16,1006.61 508.35,1005.25"/>
    </edge>
    <edge id=":3_13" function="internal">
        <lane id=":3_13_0" index="0" speed="11.11" length="9.50" shape="505.25,1008.35 514.75,1008.35"/>
    </edge>
    <edge id=":3_14" function="internal">
        <lane id=":3_14_0" index="0" speed="15.28" length="5.28" shape="505.25,1008.35 508.05,1008.75 510.05,1009.95 510.11,1010.05"/>
    </edge>
    <edge id=":3_15" function="internal">
        <lane id=":3_15_0" index="0" speed="15.28" length="2.41" shape="505.25,1008.35 506.49,1009.18 506.90,1010.00"/>
    </edge>
    <edge id=":3_18" function="internal">
        <lane id=":3_18_0" index="0" speed="15.28" length="5.04" shape="510.11,1010.05 511.25,1011.95 511.65,1014.75"/>
    </edge>
    <edge id=":3_19" function="internal">
        <lane id=":3_19_0" index="0" speed="15.28" length="2.41" shape="506.90,1010.00 506.49,1010.83 505.25,1011.65"/>
    </edge>
    <edge id=":4_0" function="internal">
        <lane id=":4_0_0" index="0" speed="19.44" length="0.10" shape="508.35,10.00 508.35,10.00"/>
    </edge>
    <edge id=":4_1" function="internal">
        <lane id=":4_1_0" index="0" speed="15.28" length="4.82" shape="508.35,10.00 509.18,8.76 510.00,8.35 510.82,8.76 511.65,10.00"/>
    </edge>
    <edge id=":4_2" function="internal">
        <lane id=":4_2_0" index="0" speed="11.11" length="0.10" shape="511.65,10.00 511.65,10.00"/>
    </edge>
    <edge id=":4_3" function="internal">
        <lane id=":4_3_0" index="0" speed="15.28" length="4.82" shape="511.65,10.00 510.82,11.24 510.00,11.65 509.18,11.24 508.35,10.00"/>
    </edge>
    <edge id=":5_0" function="internal">
        <lane id=":5_0_0" index="0" speed="19.44" length="3.30" shape="1011.65,2010.00 1008.35,2010.00"/>
    </edge>
    <edge id=":5_1" function="internal">
        <lane id=":5_1_0" index="0" speed="15.28" length="4.82" shape="1011.65,2010.00 1010.83,2011.24 1010.00,2011.65 1009.18,2011.24 1008.35,2010.00"/>
    </edge>
    <edge id=":5_2" function="internal">
        <lane id=":5_2_0" index="0" speed="11.11" length="3.30" shape="1011.65,2010.00 1008.35,2010.00"/>
    </edge>
    <edge id=":5_3" function="internal">
        <lane id=":5_3_0" index="0" speed="15.28" length="4.82" shape="1011.65,2010.00 1010.83,2011.24 1010.00,2011.65 1009.18,2011.24 1008.35,2010.00"/>
    </edge>
    <edge id=":6_0" function="internal">
        <lane id=":6_0_0" index="0" speed="15.28" length="5.00" shape="1008.35,1014.75 1008.16,1013.39 1007.58,1012.43 1006.61,1011.84 1005.25,1011.65"/>
    </edge>
    <edge id=":6_1" function="internal">
        <lane id=":6_1_0" index="0" speed="15.28" length="9.50" shape="1008.35,1014.75 1008.35,1005.25"/>
    </edge>
    <edge id=":6_2" function="internal">
        <lane id=":6_2_0" index="0" speed="15.28" length="5.28" shape="1008.35,1014.75 1008.75,1011.95 1009.95,1009.95 1010.05,1009.89"/>
    </edge>
    <edge id=":6_3" function="internal">
        <lane id=":6_3_0" index="0" speed="15.28" length="2.41" shape="1008.35,1014.75 1009.18,1013.51 1010.00,1013.10"/>
    </edge>
    <edge id=":6_16" function="internal">
        <lane id=":6_16_0" index="0" speed="15.28" length="5.04" shape="1010.05,1009.89 1011.95,1008.75 1014.75,1008.35"/>
    </edge>
    <edge id=":6_17" function="internal">
        <lane id=":6_17_0" index="0" speed="15.28" length="2.41" shape="1010.00,1013.10 1010.83,1013.51 1011.65,1014.75"/>
    </edge>
    <edge id=":6_4" function="internal">
        <lane id=":6_4_0" index="0" speed="15.28" length="5.00" shape="1014.75,1011.65 1013.39,1011.84 1012.43,1012.43 1011.84,1013.39 1011.65,1014.75"/>
    </edge>
    <edge id=":6_5" function="internal">
        <lane id=":6_5_0" index="0" speed="15.28" length="9.50" shape="1014.75,1011.65 1005.25,1011.65"/>
    </edge>
    <edge id=":6_6" function="internal">
        <lane id=":6_6_0" index="0" speed="15.28" length="10.32" shape="1014.75,1011.65 1011.95,1011.25 1009.95,1010.05 1008.75,1008.05 1008.35,1005.25"/>
    </edge>
    <edge id=":6_7" function="internal">
        <lane id=":6_7_0" index="0" speed="15.28" length="4.82" shape="1014.75,1011.65 1013.51,1010.83 1013.10,1010.00 1013.51,1009.18 1014.75,1008.35"/>
    </edge>
    <edge id=":6_8" function="internal">
        <lane id=":6_8_0" index="0" speed="15.28" length="5.00" shape="1011.65,1005.25 1011.84,1006.61 1012.43,1007.57 1013.39,1008.16 1014.75,1008.35"/>
    </edge>
    <edge id=":6_9" function="internal">
        <lane id=":6_9_0" index="0" speed="15.28" length="9.50" shape="1011.65,1005.25 1011.65,1014.75"/>
    </edge>
    <edge id=":6_10" function="internal">
        <lane id=":6_10_0" index="0" speed="15.28" length="5.28" shape="1011.65,1005.25 1011.25,1008.05 1010.05,1010.05 1009.95,1010.11"/>
    </edge>
    <edge id=":6_11" function="internal">
        <lane id=":6_11_0" index="0" speed="15.28" length="2.41" shape="1011.65,1005.25 1010.83,1006.49 1010.00,1006.90"/>
    </edge>
    <edge id=":6_18" function="internal">
        <lane id=":6_18_0" index="0" speed="15.28" length="5.04" shape="1009.95,1010.11 1008.05,1011.25 1005.25,1011.65"/>
    </edge>
    <edge id=":6_19" function="internal">
        <lane id=":6_19_0" index="0" speed="15.28" length="2.41" shape="1010.00,1006.90 1009.18,1006.49 1008.35,1005.25"/>
    </edge>
    <edge id=":6_12" function="internal">
        <lane id=":6_12_0" index="0" speed="15.28" length="5.00" shape="1005.25,1008.35 1006.61,1008.16 1007.57,1007.58 1008.16,1006.61 1008.35,1005.25"/>
    </edge>
    <edge id=":6_13" function="internal">
        <lane id=":6_13_0" index="0" speed="15.28" length="9.50" shape="1005.25,1008.35 1014.75,1008.35"/>
    </edge>
    <edge id=":6_14" function="internal">
        <lane id=":6_14_0" index="0" speed="15.28" length="10.32" shape="1005.25,1008.35 1008.05,1008.75 1010.05,1009.95 1011.25,1011.95 1011.65,1014.75"/>
    </edge>
    <edge id=":6_15" function="internal">
        <lane id=":6_15_0" index="0" speed="15.28" length="4.82" shape="1005.25,1008.35 1006.49,1009.18 1006.90,1010.00 1006.49,1010.83 1005.25,1011.65"/>
    </edge>
    <edge id=":7_0" function="internal">
        <lane id=":7_0_0" index="0" speed="19.44" length="0.10" shape="1008.35,10.00 1008.35,10.00"/>
    </edge>
    <edge id=":7_1" function="internal">
        <lane id=":7_1_0" index="0" speed="15.28" length="4.82" shape="1008.35,10.00 1009.18,8.76 1010.00,8.35 1010.83,8.76 1011.65,10.00"/>
    </edge>
    <edge id=":7_2" function="internal">
        <lane id=":7_2_0" index="0" speed="11.11" length="0.10" shape="1011.65,10.00 1011.65,10.00"/>
    </edge>
    <edge id=":7_3" function="internal">
        <lane id=":7_3_0" index="0" speed="15.28" length="4.82" shape="1011.65,10.00 1010.83,11.24 1010.00,11.65 1009.18,11.24 1008.35,10.00"/>
    </edge>
    <edge id=":8_0" function="internal">
        <lane id=":8_0_0" index="0" speed="11.11" length="0.10" shape="1510.00,1011.65 1510.00,1011.65"/>
    </edge>
    <edge id=":8_1" function="internal">
        <lane id=":8_1_0" index="0" speed="15.28" length="4.82" shape="1510.00,1011.65 1508.76,1010.83 1508.35,1010.00 1508.76,1009.18 1510.00,1008.35"/>
    </edge>
    <edge id=":8_2" function="internal">
        <lane id=":8_2_0" index="0" speed="19.44" length="0.10" shape="1510.00,1008.35 1510.00,1008.35"/>
    </edge>
    <edge id=":8_3" function="internal">
        <lane id=":8_3_0" index="0" speed="15.28" length="4.82" shape="1510.00,1008.35 1511.24,1009.18 1511.65,1010.00 1511.24,1010.83 1510.00,1011.65"/>
    </edge>
    <edge id=":91_0" function="internal">
        <lane id=":91_0_0" index="0" speed="15.28" length="4.82" shape="0.00,1011.65 -1.24,1010.83 -1.65,1010.00 -1.24,1009.18 0.00,1008.35"/>
    </edge>
    <edge id=":92_0" function="internal">
        <lane id=":92_0_0" index="0" speed="15.28" length="4.82" shape="508.35,2000.00 509.18,1998.76 510.00,1998.35 510.82,1998.76 511.65,2000.00"/>
    </edge>
    <edge id=":94_0" function="internal">
        <lane id=":94_0_0" index="0" speed="15.28" length="4.82" shape="508.35,0.00 509.18,-1.24 510.00,-1.65 510.82,-1.24 511.65,0.00"/>
    </edge>
    <edge id=":95_0" function="internal">
        <lane id=":95_0_0" index="0" speed="15.28" length="4.82" shape="1008.35,2000.00 1009.18,1998.76 1010.00,1998.35 1010.83,1998.76 1011.65,2000.00"/>
    </edge>
    <edge id=":97_0" function="internal">
        <lane id=":97_0_0" index="0" speed="15.28" length="4.82" shape="1008.35,0.00 1009.18,-1.24 1010.00,-1.65 1010.83,-1.24 1011.65,0.00"/>
    </edge>
    <edge id=":98_0" function="internal">
        <lane id=":98_0_0" index="0" speed="15.28" length="4.82" shape="1520.00,1008.35 1521.24,1009.18 1521.65,1010.00 1521.24,1010.83 1520.00,1011.65"/>
    </edge>

    <edge id="1i" from="3" to="1" priority="78">
        <lane id="1i_0" index="0" speed="19.44" length="495.25" shape="505.25,1011.65 10.00,1011.65"/>
    </edge>
    <edge id="1o" from="1" to="3" priority="46">
        <lane id="1o_0" index="0" speed="11.11" length="495.25" shape="10.00,1008.35 505.25,1008.35"/>
    </edge>
    <edge id="2i" from="3" to="2" priority="78">
        <lane id="2i_0" index="0" speed="19.44" length="995.25" shape="511.65,1014.75 511.65,2010.00"/>
    </edge>
    <edge id="2o" from="2" to="3" priority="46">
        <lane id="2o_0" index="0" speed="11.11" length="995.25" shape="508.35,2010.00 508.35,1014.75"/>
    </edge>
    <edge id="3i" from="6" to="3" priority="78">
        <lane id="3i_0" index="0" speed="19.44" length="490.50" shape="1005.25,1011.65 514.75,1011.65"/>
    </edge>
    <edge id="3o" from="3" to="6" priority="46">
        <lane id="3o_0" index="0" speed="11.11" length="490.50" shape="514.75,1008.35 1005.25,1008.35"/>
    </edge>
    <edge id="4i" from="3" to="4" priority="78">
        <lane id="4i_0" index="0" speed="19.44" length="995.25" shape="508.35,1005.25 508.35,10.00"/>
    </edge>
    <edge id="4o" from="4" to="3" priority="46">
        <lane id="4o_0" index="0" speed="11.11" length="995.25" shape="511.65,10.00 511.65,1005.25"/>
    </edge>
    <edge id="5i" from="6" to="5" priority="78">
        <lane id="5i_0" index="0" speed="19.44" length="995.25" shape="1011.65,1014.75 1011.65,2010.00"/>
    </edge>
    <edge id="5o" from="5" to="6" priority="46">
        <lane id="5o_0" index="0" speed="11.11" length="995.25" shape="1008.35,2010.00 1008.35,1014.75"/>
    </edge>
    <edge id="7i" from="6" to="7" priority="78">
        <lane id="7i_0" index="0" speed="19.44" length="995.25" shape="1008.35,1005.25 1008.35,10.00"/>
    </edge>
    <edge id="7o" from="7" to="6" priority="46">
        <lane id="7o_0" index="0" speed="11.11" length="995.25" shape="1011.65,10.00 1011.65,1005.25"/>
    </edge>
    <edge id="8i" from="6" to="8" priority="78">
        <lane id="8i_0" index="0" speed="19.44" length="495.25" shape="1014.75,1008.35 1510.00,1008.35"/>
    </edge>
    <edge id="8o" from="8" to="6" priority="46">
        <lane id="8o_0" index="0" speed="11.11" length="495.25" shape="1510.00,1011.65 1014.75,1011.65"/>
    </edge>
    <edge id="91i" from="1" to="91" priority="78">
        <lane id="91i_0" index="0" speed="19.44" length="10.00" shape="10.00,1011.65 0.00,1011.65"/>
    </edge>
    <edge id="91o" from="91" to="1" priority="46">
        <lane id="91o_0" index="0" speed="11.11" length="10.00" shape="0.00,1008.35 10.00,1008.35"/>
    </edge>
    <edge id="92i" from="2" to="92" priority="78">
        <lane id="92i_0" index="0" speed="19.44" length="10.00" shape="508.35,2010.00 508.35,2000.00"/>
    </edge>
    <edge id="92o" from="92" to="2" priority="46">
        <lane id="92o_0" index="0" speed="11.11" length="10.00" shape="511.65,2000.00 511.65,2010.00"/>
    </edge>
    <edge id="94i" from="4" to="94" priority="78">
        <lane id="94i_0" index="0" speed="19.44" length="10.00" shape="508.35,10.00 508.35,0.00"/>
    </edge>
    <edge id="94o" from="94" to="4" priority="46">
        <lane id="94o_0" index="0" speed="11.11" length="10.00" shape="511.65,0.00 511.65,10.00"/>
    </edge>
    <edge id="95i" from="5" to="95" priority="78">
        <lane id="95i_0" index="0" speed="19.44" length="10.00" shape="1008.35,2010.00 1008.35,2000.00"/>
    </edge>
    <edge id="95o" from="95" to="5" priority="46">
        <lane id="95o_0" index="0" speed="11.11" length="10.00" shape="1011.65,2000.00 1011.65,2010.00"/>
    </edge>
    <edge id="97i" from="7" to="97" priority="78">
        <lane id="97i_0" index="0" speed="19.44" length="10.00" shape="1008.35,10.00 1008.35,0.00"/>
    </edge>
    <edge id="97o" from="97" to="7" priority="46">
        <lane id="97o_0" index="0" speed="11.11" length="10.00" shape="1011.65,0.00 1011.65,10.00"/>
    </edge>
    <edge id="98i" from="8" to="98" priority="78">
        <lane id="98i_0" index="0" speed="19.44" length="10.00" shape="1510.00,1008.35 1520.00,1008.35"/>
    </edge>
    <edge id="98o" from="98" to="8" priority="46">
        <lane id="98o_0" index="0" speed="11.11" length="10.00" shape="1520.00,1011.65 1510.00,1011.65"/>
    </edge>

    <junction id="1" type="priority" x="10.00" y="1010.00" incLanes="1i_0 91o_0" intLanes=":1_0_0 :1_1_0 :1_2_0 :1_3_0" shape="10.00,1013.25 10.00,1006.75 10.00,1013.25">
        <request index="0" response="0000" foes="1000" cont="0"/>
        <request index="1" response="0100" foes="0100" cont="0"/>
        <request index="2" response="0000" foes="0010" cont="0"/>
        <request index="3" response="0001" foes="0001" cont="0"/>
    </junction>
    <junction id="2" type="priority" x="510.00" y="2010.00" incLanes="2i_0 92o_0" intLanes=":2_0_0 :2_1_0 :2_2_0 :2_3_0" shape="513.25,2010.00 510.05,2010.00 506.75,2010.00">
        <request index="0" response="0000" foes="1000" cont="0"/>
        <request index="1" response="0100" foes="0100" cont="0"/>
        <request index="2" response="0000" foes="0010" cont="0"/>
        <request index="3" response="0001" foes="0001" cont="0"/>
    </junction>
    <junction id="3" type="priority" x="510.00" y="1010.00" incLanes="2o_0 3i_0 4o_0 1o_0" intLanes=":3_0_0 :3_1_0 :3_2_0 :3_3_0 :3_4_0 :3_5_0 :3_16_0 :3_17_0 :3_8_0 :3_9_0 :3_10_0 :3_11_0 :3_12_0 :3_13_0 :3_18_0 :3_19_0" shape="506.75,1014.75 513.25,1014.75 514.75,1013.25 514.75,1006.75 513.25,1005.25 506.75,1005.25 505.25,1006.75 505.25,1013.25">
        <request index="0" response="0000000000100000" foes="1000010000100000" cont="0"/>
        <request index="1" response="0111000001100000" foes="0111110001100000" cont="0"/>
        <request index="2" response="0110001101100000" foes="0110001111100000" cont="0"/>
        <request index="3" response="0100001000010000" foes="0100001000010000" cont="0"/>
        <request index="4" response="0000000000000000" foes="0100001000001000" cont="0"/>
        <request index="5" response="0000000000000000" foes="1100011000000111" cont="0"/>
        <request index="6" response="0011000000000000" foes="0011111000000110" cont="1"/>
        <request index="7" response="0010000100000100" foes="0010000100000100" cont="1"/>
        <request index="8" response="0010000000000000" foes="0010000010000100" cont="0"/>
        <request index="9" response="0110000001110000" foes="0110000001111100" cont="0"/>
        <request index="10" response="0110000001100011" foes="1110000001100011" cont="0"/>
        <request index="11" response="0001000001000010" foes="0001000001000010" cont="0"/>
        <request index="12" response="0000000000000000" foes="0000100001000010" cont="0"/>
        <request index="13" response="0000000000000000" foes="0000011111000110" cont="0"/>
        <request index="14" response="0000000000110000" foes="0000011000111110" cont="1"/>
        <request index="15" response="0000010000100001" foes="0000010000100001" cont="1"/>
    </junction>
    <junction id="4" type="priority" x="510.00" y="10.00" incLanes="4i_0 94o_0" intLanes=":4_0_0 :4_1_0 :4_2_0 :4_3_0" shape="506.75,10.00 513.25,10.00 506.75,10.00">
        <request index="0" response="0000" foes="1000" cont="0"/>
        <request index="1" response="0100" foes="0100" cont="0"/>
        <request index="2" response="0000" foes="0010" cont="0"/>
        <request index="3" response="0001" foes="0001" cont="0"/>
    </junction>
    <junction id="5" type="priority" x="1010.00" y="2010.00" incLanes="5i_0 95o_0" intLanes=":5_0_0 :5_1_0 :5_2_0 :5_3_0" shape="1013.25,2010.00 1010.05,2010.00 1006.75,2010.00">
        <request index="0" response="0000" foes="1000" cont="0"/>
        <request index="1" response="0100" foes="0100" cont="0"/>
        <request index="2" response="0000" foes="0010" cont="0"/>
        <request index="3" response="0001" foes="0001" cont="0"/>
    </junction>
    <junction id="6" type="priority" x="1010.00" y="1010.00" incLanes="5o_0 8o_0 7o_0 3o_0" intLanes=":6_0_0 :6_1_0 :6_16_0 :6_17_0 :6_4_0 :6_5_0 :6_6_0 :6_7_0 :6_8_0 :6_9_0 :6_18_0 :6_19_0 :6_12_0 :6_13_0 :6_14_0 :6_15_0" shape="1006.75,1014.75 1013.25,1014.75 1014.75,1013.25 1014.75,1006.75 1013.25,1005.25 1006.75,1005.25 1005.25,1006.75 1005.25,1013.25">
        <request index="0" response="0000000000000000" foes="1000010000100000" cont="0"/>
        <request index="1" response="0000000000000000" foes="0111110001100000" cont="0"/>
        <request index="2" response="0000001100000000" foes="0110001111100000" cont="1"/>
        <request index="3" response="0100001000010000" foes="0100001000010000" cont="1"/>
        <request index="4" response="0000001000000000" foes="0100001000001000" cont="0"/>
        <request index="5" response="0000011000000111" foes="1100011000000111" cont="0"/>
        <request index="6" response="0011011000000110" foes="0011111000000110" cont="0"/>
        <request index="7" response="0010000100000100" foes="0010000100000100" cont="0"/>
        <request index="8" response="0000000000000000" foes="0010000010000100" cont="0"/>
        <request index="9" response="0000000000000000" foes="0110000001111100" cont="0"/>
        <request index="10" response="0000000000000011" foes="1110000001100011" cont="1"/>
        <request index="11" response="0001000001000010" foes="0001000001000010" cont="1"/>
        <request index="12" response="0000000000000010" foes="0000100001000010" cont="0"/>
        <request index="13" response="0000011100000110" foes="0000011111000110" cont="0"/>
        <request index="14" response="0000011000110110" foes="0000011000111110" cont="0"/>
        <request index="15" response="0000010000100001" foes="0000010000100001" cont="0"/>
    </junction>
    <junction id="7" type="priority" x="1010.00" y="10.00" incLanes="7i_0 97o_0" intLanes=":7_0_0 :7_1_0 :7_2_0 :7_3_0" shape="1006.75,10.00 1013.25,10.00 1006.75,10.00">
        <request index="0" response="0000" foes="1000" cont="0"/>
        <request index="1" response="0100" foes="0100" cont="0"/>
        <request index="2" response="0000" foes="0010" cont="0"/>
        <request index="3" response="0001" foes="0001" cont="0"/>
    </junction>
    <junction id="8" type="priority" x="1510.00" y="1010.00" incLanes="98o_0 8i_0" intLanes=":8_0_0 :8_1_0 :8_2_0 :8_3_0" shape="1510.00,1013.25 1510.00,1006.75 1510.00,1013.25">
        <request index="0" response="0000" foes="1000" cont="0"/>
        <request index="1" response="0100" foes="0100" cont="0"/>
        <request index="2" response="0000" foes="0010" cont="0"/>
        <request index="3" response="0001" foes="0001" cont="0"/>
    </junction>
    <junction id="91" type="priority" x="0.00" y="1010.00" incLanes="91i_0" intLanes=":91_0_0" shape="0.00,1009.95 0.00,1013.25 0.00,1010.05">
        <request index="0" response="0" foes="0" cont="0"/>
    </junction>
    <junction id="92" type="priority" x="510.00" y="2000.00" incLanes="92i_0" intLanes=":92_0_0" shape="510.05,2000.00 506.75,2000.00 509.95,2000.00">
        <request index="0" response="0" foes="0" cont="0"/>
    </junction>
    <junction id="94" type="priority" x="510.00" y="0.00" incLanes="94i_0" intLanes=":94_0_0" shape="510.05,0.00 506.75,0.00 509.95,0.00">
        <request index="0" response="0" foes="0" cont="0"/>
    </junction>
    <junction id="95" type="priority" x="1010.00" y="2000.00" incLanes="95i_0" intLanes=":95_0_0" shape="1010.05,2000.00 1006.75,2000.00 1009.95,2000.00">
        <request index="0" response="0" foes="0" cont="0"/>
    </junction>
    <junction id="97" type="priority" x="1010.00" y="0.00" incLanes="97i_0" intLanes=":97_0_0" shape="1010.05,0.00 1006.75,0.00 1009.95,0.00">
        <request index="0" response="0" foes="0" cont="0"/>
    </junction>
    <junction id="98" type="priority" x="1520.00" y="1010.00" incLanes="98i_0" intLanes=":98_0_0" shape="1520.00,1010.05 1520.00,1006.75 1520.00,1009.95">
        <request index="0" response="0" foes="0" cont="0"/>
    </junction>

    <junction id=":3_16_0" type="internal" x="509.89" y="1009.95" incLanes=":3_6_0 1o_0" intLanes=":3_1_0 :3_2_0 :3_9_0 :3_10_0 :3_11_0 :3_12_0 :3_13_0"/>
    <junction id=":3_17_0" type="internal" x="513.10" y="1010.00" incLanes=":3_7_0 1o_0 2o_0 4o_0" intLanes=":3_2_0 :3_8_0 :3_13_0"/>
    <junction id=":3_18_0" type="internal" x="510.11" y="1010.05" incLanes=":3_14_0 3i_0" intLanes=":3_1_0 :3_2_0 :3_3_0 :3_4_0 :3_5_0 :3_9_0 :3_10_0"/>
    <junction id=":3_19_0" type="internal" x="506.90" y="1010.00" incLanes=":3_15_0 2o_0 3i_0 4o_0" intLanes=":3_0_0 :3_5_0 :3_10_0"/>
    <junction id=":6_16_0" type="internal" x="1010.05" y="1009.89" incLanes=":6_2_0 7o_0" intLanes=":6_5_0 :6_6_0 :6_7_0 :6_8_0 :6_9_0 :6_13_0 :6_14_0"/>
    <junction id=":6_17_0" type="internal" x="1010.00" y="1013.10" incLanes=":6_3_0 3o_0 7o_0 8o_0" intLanes=":6_4_0 :6_9_0 :6_14_0"/>
    <junction id=":6_18_0" type="internal" x="1009.95" y="1010.11" incLanes=":6_10_0 5o_0" intLanes=":6_0_0 :6_1_0 :6_5_0 :6_6_0 :6_13_0 :6_14_0 :6_15_0"/>
    <junction id=":6_19_0" type="internal" x="1010.00" y="1006.90" incLanes=":6_11_0 3o_0 5o_0 8o_0" intLanes=":6_1_0 :6_6_0 :6_12_0"/>

    <connection from="1i" to="91i" fromLane="0" toLane="0" via=":1_0_0" dir="s" state="M"/>
    <connection from="1i" to="1o" fromLane="0" toLane="0" via=":1_1_0" dir="t" state="m"/>
    <connection from="1o" to="4i" fromLane="0" toLane="0" via=":3_12_0" dir="r" state="M"/>
    <connection from="1o" to="3o" fromLane="0" toLane="0" via=":3_13_0" dir="s" state="M"/>
    <connection from="1o" to="2i" fromLane="0" toLane="0" via=":3_14_0" dir="l" state="m"/>
    <connection from="1o" to="1i" fromLane="0" toLane="0" via=":3_15_0" dir="t" state="m"/>
    <connection from="2i" to="92i" fromLane="0" toLane="0" via=":2_0_0" dir="l" state="M"/>
    <connection from="2i" to="2o" fromLane="0" toLane="0" via=":2_1_0" dir="t" state="m"/>
    <connection from="2o" to="1i" fromLane="0" toLane="0" via=":3_0_0" dir="r" state="m"/>
    <connection from="2o" to="4i" fromLane="0" toLane="0" via=":3_1_0" dir="s" state="m"/>
    <connection from="2o" to="3o" fromLane="0" toLane="0" via=":3_2_0" dir="l" state="m"/>
    <connection from="2o" to="2i" fromLane="0" toLane="0" via=":3_3_0" dir="t" state="m"/>
    <connection from="3i" to="2i" fromLane="0" toLane="0" via=":3_4_0" dir="r" state="M"/>
    <connection from="3i" to="1i" fromLane="0" toLane="0" via=":3_5_0" dir="s" state="M"/>
    <connection from="3i" to="4i" fromLane="0" toLane="0" via=":3_6_0" dir="l" state="m"/>
    <connection from="3i" to="3o" fromLane="0" toLane="0" via=":3_7_0" dir="t" state="m"/>
    <connection from="3o" to="7i" fromLane="0" toLane="0" via=":6_12_0" dir="r" state="m"/>
    <connection from="3o" to="8i" fromLane="0" toLane="0" via=":6_13_0" dir="s" state="m"/>
    <connection from="3o" to="5i" fromLane="0" toLane="0" via=":6_14_0" dir="l" state="m"/>
    <connection from="3o" to="3i" fromLane="0" toLane="0" via=":6_15_0" dir="t" state="m"/>
    <connection from="4i" to="94i" fromLane="0" toLane="0" via=":4_0_0" dir="s" state="M"/>
    <connection from="4i" to="4o" fromLane="0" toLane="0" via=":4_1_0" dir="t" state="m"/>
    <connection from="4o" to="3o" fromLane="0" toLane="0" via=":3_8_0" dir="r" state="m"/>
    <connection from="4o" to="2i" fromLane="0" toLane="0" via=":3_9_0" dir="s" state="m"/>
    <connection from="4o" to="1i" fromLane="0" toLane="0" via=":3_10_0" dir="l" state="m"/>
    <connection from="4o" to="4i" fromLane="0" toLane="0" via=":3_11_0" dir="t" state="m"/>
    <connection from="5i" to="95i" fromLane="0" toLane="0" via=":5_0_0" dir="l" state="M"/>
    <connection from="5i" to="5o" fromLane="0" toLane="0" via=":5_1_0" dir="t" state="m"/>
    <connection from="5o" to="3i" fromLane="0" toLane="0" via=":6_0_0" dir="r" state="M"/>