<routes>
		<vType id="typeNS" accel="1" decel="4.5" sigma="0.5" length="5" minGap="3" maxSpeed="8" guiShape="passenger"/>
		<vType id="typeBike" accel="0.5" decel="5" sigma="0.5" length="2" minGap="3" maxSpeed="2" guiShape="bicycle"/>
		<route id="up1" edges="94o 4o 2i 92i" />
		<route id="down1" edges="92o 2o 4i 94i" />
		<route id="up2" edges="97o 7o 5i 95i" />
		<route id="down2" edges="95o 5o 7i 97i" />
		<route id="bike1" edges="91o 1o 3o 8i 98i"/>
	<vehicle id="down1_0" type="typeNS" route="down1" depart="0" />
	<vehicle id="down2_1" type="typeNS" route="down2" depart="1" />
	<vehicle id="down1_2" type="typeNS" route="down1" depart="2" />
	<vehicle id="up1_3" type="typeNS" route="up1" depart="3" />
	<vehicle id="down2_4" type="typeNS" route="down2" depart="4" />
	<vehicle id="down1_5" type="typeNS" route="down1" depart="10" />
	<vehicle id="up1_6" type="typeNS" route="up1" depart="11" />
	<vehicle id="down2_7" type="typeNS" route="down2" depart="16" />
	<vehicle id="up1_8" type="typeNS" route="up1" depart="22" />
	<vehicle id="down1_9" type="typeNS" route="down1" depart="22" />
	<vehicle id="up2_10" type="typeNS" route="up2" depart="23" />
	<vehicle id="up1_11" type="typeNS" route="up1" depart="25" />
	<vehicle id="up1_12" type="typeNS" route="up1" depart="31" />
	<vehicle id="up2_13" type="typeNS" route="up2" depart="31" />
	<vehicle id="down2_14" type="typeNS" route="down2" depart="32" />
	<vehicle id="up2_15" type="typeNS" route="up2" depart="33" />
	<vehicle id="up1_16" type="typeNS" route="up1" depart="34" />
	<vehicle id="up1_17" type="typeNS" route="up1" depart="40" />
	<vehicle id="down1_18" type="typeNS" route="down1" depart="41" />
	<vehicle id="up1_19" type="typeNS" route="up1" depart="44" />
	<vehicle id="down1_20" type="typeNS" route="down1" depart="49" />
	<vehicle id="down2_21" type="typeNS" route="down2" depart="51" />
	<vehicle id="up1_22" type="typeNS" route="up1" depart="56" />
	<vehicle id="up2_23" type="typeNS" route="up2" depart="57" />
	<vehicle id="up1_24" type="typeNS" route="up1" depart="63" />
	<vehicle id="up1_25" type="typeNS" route="up1" depart="64" />
	<vehicle id="down1_26" type="typeNS" route="down1" depart="67" />
	<vehicle id="up2_27" type="typeNS" route="up2" depart="72" />
	<vehicle id="down1_28" type="typeNS" route="down1" depart="74" />
	<vehicle id="up2_29" type="typeNS" route="up2" depart="74" />
	<vehicle id="up1_30" type="typeNS" route="up1" depart="81" />
	<vehicle id="up2_31" type="typeNS" route="up2" depart="85" />
	<vehicle id="up1_32" type="typeNS" route="up1" depart="92" />
	<vehicle id="down2_33" type="typeNS" route="down2" depart="93" />
	<vehicle id="up2_34" type="typeNS" route="up2" depart="98" />
	<vehicle id="up2_35" type="typeNS" route="up2" depart="101" />
	<vehicle id="down2_36" type="typeNS" route="down2" depart="103" />
	<vehicle id="down2_37" type="typeNS" route="down2" depart="104" />
	<vehicle id="down2_38" type="typeNS" route="down2" depart="106" />
	<vehicle id="down2_39" type="typeNS" route="down2" depart="108" />
	<vehicle id="up1_40" type="typeNS" route="up1" depart="115" />
	<vehicle id="down1_41" type="typeNS" route="down1" depart="117" />
	<vehicle id="down1_42" type="typeNS" route="down1" depart="120" />
	<vehicle id="down1_43" type="typeNS" route="down1" depart="123" />
	<vehicle id="down1_44" type="typeNS" route="down1" depart="125" />
	<vehicle id="up1_45" type="typeNS" route="up1" depart="126" />
	<vehicle id="up1_46" type="typeNS" route="up1" depart="127" />
	<vehicle id="down1_47" type="typeNS" route="down1" depart="129" />
	<vehicle id="up2_48" type="typeNS" route="up2" depart="129" />
	<vehicle id="up1_49" type="typeNS" route="up1" depart="132" />
	<vehicle id="down2_50" type="typeNS" route="down2" depart="135" />
	<vehicle id="down1_51" type="typeNS" route="down1" depart="137" />
	<vehicle id="down2_52" type="typeNS" route="down2" depart="145" />
	<vehicle id="down1_53" type="typeNS" route="down1" depart="147" />
	<vehicle id="up2_54" type="typeNS" route="up2" depart="149" />
	<vehicle id="up1_55" type="typeNS" route="up1" depart="150" />
	<vehicle id="up1_56" type="typeNS" route="up1" depart="152" />
	<vehicle id="down1_57" type="typeNS" route="down1" depart="159" />
	<vehicle id="down2_58" type="typeNS" route="down2" depart="162" />
	<vehicle id="up1_59" type="typeNS" route="up1" depart="164" />
	<vehicle id="up2_60" type="typeNS" route="up2" depart="164" />
	<vehicle id="down2_61" type="typeNS" route="down2" depart="170" />
	<vehicle id="up1_62" type="typeNS" route="up1" depart="171" />
	<vehicle id="down2_63" type="typeNS" route="down2" depart="175" />
	<vehicle id="down2_64" type="typeNS" route="down2" depart="178" />
	<vehicle id="up1_65" type="typeNS" route="up1" depart="179" />
	<vehicle id="up1_66" type="typeNS" route="up1" depart="180" />
	<vehicle id="up1_67" type="typeNS" route="up1" depart="182" />
	<vehicle id="down1_68" type="typeNS" route="down1" depart="184" />
	<vehicle id="down1_69" type="typeNS" route="down1" depart="204" />
	<vehicle id="up2_70" type="typeNS" route="up2" depart="206" />
	<vehicle id="down2_71" type="typeNS" route="down2" depart="212" />
	<vehicle id="up1_72" type="typeNS" route="up1" depart="213" />
	<vehicle id="up1_73" type="typeNS" route="up1" depart="216" />
	<vehicle id="down1_74" type="typeNS" route="down1" depart="218" />
	<vehicle id="up2_75" type="typeNS" route="up2" depart="220" />
	<vehicle id="up1_76" type="typeNS" route="up1" depart="227" />
	<vehicle id="down1_77" type="typeNS" route="down1" depart="232" />
	<vehicle id="up1_78" type="typeNS" route="up1" depart="239" />
	<vehicle id="up2_79" type="typeNS" route="up2" depart="241" />
	<vehicle id="down2_80" type="typeNS" route="down2" depart="242" />
	<vehicle id="up1_81" type="typeNS" route="up1" depart="245" />
	<vehicle id="down2_82" type="typeNS" route="down2" depart="248" />
	<vehicle id="up1_83" type="typeNS" route="up1" depart="250" />
	<vehicle id="down1_84" type="typeNS" route="down1" depart="253" />
	<vehicle id="up2_85" type="typeNS" route="up2" depart="254" />
	<vehicle id="up2_86" type="typeNS" route="up2" depart="256" />
	<vehicle id="down1_87" type="typeNS" route="down1" depart="258" />
	<vehicle id="up2_88" type="typeNS" route="up2" depart="258" />
	<vehicle id="down2_89" type="typeNS" route="down2" depart="259" />
	<vehicle id="down1_90" type="typeNS" route="down1" depart="262" />
	<vehicle id="down2_91" type="typeNS" route="down2" depart="263" />
	<vehicle id="down1_92" type="typeNS" route="down1" depart="265" />
	<vehicle id="up2_93" type="typeNS" route="up2" depart="265" />
	<vehicle id="up1_94" type="typeNS" route="up1" depart="266" />
	<vehicle id="down1_95" type="typeNS" route="down1" depart="268" />
	<vehicle id="down1_96" type="typeNS" route="down1" depart="271" />
	<vehicle id="down2_97" type="typeNS" route="down2" depart="272" />
	<vehicle id="down1_98" type="typeNS" route="down1" depart="273" />
	<vehicle id="down1_99" type="typeNS" route="down1" depart="281" />
	<vehicle id="down1_100" type="typeNS" route="down1" depart="283" />
	<vehicle id="down2_101" type="typeNS" route="down2" depart="284" />
	<vehicle id="up1_102" type="typeNS" route="up1" depart="287" />
	<vehicle id="down1_103" type="typeNS" route="down1" depart="287" />
	<vehicle id="down1_104" type="typeNS" route="down1" depart="291" />
	<vehicle id="up1_105" type="typeNS" route="up1" depart="292" />
	<vehicle id="up2_106" type="typeNS" route="up2" depart="293" />
	<vehicle id="up2_107" type="typeNS" route="up2" depart="295" />
	<vehicle id="up1_108" type="typeNS" route="up1" depart="296" />
	<vehicle id="down1_109" type="typeNS" route="down1" depart="296" />
	<vehicle id="down1_110" type="typeNS" route="down1" depart="298" />
	<vehicle id="down2_111" type="typeNS" route="down2" depart="299" />
	<vehicle id="up1_112" type="typeNS" route="up1" depart="309" />
	<vehicle id="up1_113" type="typeNS" route="up1" depart="310" />
	<vehicle id="up1_114" type="typeNS" route="up1" depart="311" />
	<vehicle id="up2_115" type="typeNS" route="up2" depart="311" />
	<vehicle id="down1_116" type="typeNS" route="down1" depart="315" />
	<vehicle id="up1_117" type="typeNS" route="up1" depart="320" />
	<vehicle id="down1_118" type="typeNS" route="down1" depart="320" />
	<vehicle id="up1_119" type="typeNS" route="up1" depart="329" />
	<vehicle id="up2_120" type="typeNS" route="up2" depart="330" />
	<vehicle id="down1_121" type="typeNS" route="down1" depart="343" />
	<vehicle id="up2_122" type="typeNS" route="up2" depart="343" />
	<vehicle id="down2_123" type="typeNS" route="down2" depart="344" />
	<vehicle id="down2_124" type="typeNS" route="down2" depart="347" />
	<vehicle id="up1_125" type="typeNS" route="up1" depart="348" />
	<vehicle id="down1_126" type="typeNS" route="down1" depart="350" />
	<vehicle id="up1_127" type="typeNS" route="up1" depart="352" />
	<vehicle id="down1_128" type="typeNS" route="down1" depart="354" />
	<vehicle id="down2_129" type="typeNS" route="down2" depart="354" />
	<vehicle id="down1_130" type="typeNS" route="down1" depart="357" />
	<vehicle id="down1_131" type="typeNS" route="down1" depart="359" />
	<vehicle id="up2_132" type="typeNS" route="up2" depart="361" />
	<vehicle id="up2_133" type="typeNS" route="up2" depart="362" />
	<vehicle id="up1_134" type="typeNS" route="up1" depart="363" />
	<vehicle id="down1_135" type="typeNS" route="down1" depart="369" />
	<vehicle id="up2_136" type="typeNS" route="up2" depart="370" />
	<vehicle id="down1_137" type="typeNS" route="down1" depart="372" />
	<vehicle id="up1_138" type="typeNS" route="up1" depart="374" />
	<vehicle id="down1_139" type="typeNS" route="down1" depart="376" />
	<vehicle id="up2_140" type="typeNS" route="up2" depart="376" />
	<vehicle id="up2_141" type="typeNS" route="up2" depart="384" />
	<vehicle id="down2_142" type="typeNS" route="down2" depart="385" />
	<vehicle id="up1_143" type="typeNS" route="up1" depart="389" />
	<vehicle id="up2_144" type="typeNS" route="up2" depart="390" />
	<vehicle id="down1_145" type="typeNS" route="down1" depart="392" />
	<vehicle id="up2_146" type="typeNS" route="up2" depart="395" />
	<vehicle id="up1_147" type="typeNS" route="up1" depart="402" />
	<vehicle id="down1_148" type="typeNS" route="down1" depart="402" />
	<vehicle id="up1_149" type="typeNS" route="up1" depart="406" />
	<vehicle id="down1_150" type="typeNS" route="down1" depart="406" />
	<vehicle id="down1_151" type="typeNS" route="down1" depart="414" />
	<vehicle id="down2_152" type="typeNS" route="down2" depart="415" />
	<vehicle id="down2_153" type="typeNS" route="down2" depart="419" />
	<vehicle id="down2_154" type="typeNS" route="down2" depart="423" />
	<vehicle id="down1_155" type="typeNS" route="down1" depart="430" />
	<vehicle id="down2_156" type="typeNS" route="down2" depart="433" />
	<vehicle id="up2_157" type="typeNS" route="up2" depart="434" />
	<vehicle id="down2_158" type="typeNS" route="down2" depart="436" />
	<vehicle id="up2_159" type="typeNS" route="up2" depart="450" />
	<vehicle id="down2_160" type="typeNS" route="down2" depart="451" />
	<vehicle id="down2_161" type="typeNS" route="down2" depart="454" />
	<vehicle id="up1_162" type="typeNS" route="up1" depart="459" />
	<vehicle id="up2_163" type="typeNS" route="up2" depart="465" />
	<vehicle id="up2_164" type="typeNS" route="up2" depart="468" />
	<vehicle id="down1_165" type="typeNS" route="down1" depart="469" />
	<vehicle id="down2_166" type="typeNS" route="down2" depart="475" />
	<vehicle id="up2_167" type="typeNS" route="up2" depart="476" />
	<vehicle id="up1_168" type="typeNS" route="up1" depart="477" />
	<vehicle id="up1_169" type="typeNS" route="up1" depart="481" />
	<vehicle id="up1_170" type="typeNS" route="up1" depart="483" />
	<vehicle id="up2_171" type="typeNS" route="up2" depart="483" />
	<vehicle id="down1_172" type="typeNS" route="down1" depart="484" />
	<vehicle id="down2_173" type="typeNS" route="down2" depart="484" />
	<vehicle id="down1_174" type="typeNS" route="down1" depart="490" />
	<vehicle id="up2_175" type="typeNS" route="up2" depart="490" />
	<vehicle id="up2_176" type="typeNS" route="up2" depart="494" />
	<vehicle id="down1_177" type="typeNS" route="down1" depart="495" />
	<vehicle id="up1_178" type="typeNS" route="up1" depart="496" />
	<vehicle id="up2_179" type="typeNS" route="up2" depart="497" />
	<vehicle id="up1_180" type="typeNS" route="up1" depart="501" />
	<vehicle id="up2_181" type="typeNS" route="up2" depart="512" />
	<vehicle id="up1_182" type="typeNS" route="up1" depart="517" />
	<vehicle id="up2_183" type="typeNS" route="up2" depart="525" />
	<vehicle id="down2_184" type="typeNS" route="down2" depart="525" />
	<vehicle id="up1_185" type="typeNS" route="up1" depart="528" />
	<vehicle id="up1_186" type="typeNS" route="up1" depart="530" />
	<vehicle id="up2_187" type="typeNS" route="up2" depart="530" />
	<vehicle id="up2_188" type="typeNS" route="up2" depart="531" />
	<vehicle id="up1_189" type="typeNS" route="up1" depart="533" />
	<vehicle id="down1_190" type="typeNS" route="down1" depart="537" />
	<vehicle id="up1_191" type="typeNS" route="up1" depart="538" />
	<vehicle id="down1_192" type="typeNS" route="down1" depart="538" />
	<vehicle id="up1_193" type="typeNS" route="up1" depart="540" />
	<vehicle id="up2_194" type="typeNS" route="up2" depart="540" />
	<vehicle id="down2_195" type="typeNS" route="down2" depart="541" />
	<vehicle id="up1_196" type="typeNS" route="up1" depart="542" />
	<vehicle id="up1_197" type="typeNS" route="up1" depart="543" />
	<vehicle id="up1_198" type="typeNS" route="up1" depart="545" />
	<vehicle id="down1_199" type="typeNS" route="down1" depart="548" />
	<vehicle id="down1_200" type="typeNS" route="down1" depart="550" />
	<vehicle id="up2_201" type="typeNS" route="up2" depart="552" />
	<vehicle id="up2_202" type="typeNS" route="up2" depart="553" />
	<vehicle id="down1_203" type="typeNS" route="down1" depart="555" />
	<vehicle id="up2_204" type="typeNS" route="up2" depart="557" />
	<vehicle id="up1_205" type="typeNS" route="up1" depart="558" />
	<vehicle id="up2_206" type="typeNS" route="up2" depart="559" />
	<vehicle id="up1_207" type="typeNS" route="up1" depart="562" />
	<vehicle id="up1_208" type="typeNS" route="up1" depart="563" />
	<vehicle id="down1_209" type="typeNS" route="down1" depart="576" />
	<vehicle id="up2_210" type="typeNS" route="up2" depart="579" />
	<vehicle id="down2_211" type="typeNS" route="down2" depart="580" />
	<vehicle id="up2_212" type="typeNS" route="up2" depart="582" />
	<vehicle id="up2_213" type="typeNS" route="up2" depart="585" />
	<vehicle id="down2_214" type="typeNS" route="down2" depart="593" />
	<vehicle id="up1_215" type="typeNS" route="up1" depart="596" />
	<vehicle id="up1_216" type="typeNS" route="up1" depart="601" />
	<vehicle id="up1_217" type="typeNS" route="up1" depart="606" />
	<vehicle id="up2_218" type="typeNS" route="up2" depart="606" />
	<vehicle id="up1_219" type="typeNS" route="up1" depart="609" />
	<vehicle id="down1_220" type="typeNS" route="down1" depart="609" />
	<vehicle id="down1_221" type="typeNS" route="down1" depart="613" />
	<vehicle id="up2_222" type="typeNS" route="up2" depart="619" />
	<vehicle id="down1_223" type="typeNS" route="down1" depart="622" />
	<vehicle id="down1_224" type="typeNS" route="down1" depart="627" />
	<vehicle id="up1_225" type="typeNS" route="up1" depart="629" />
	<vehicle id="down2_226" type="typeNS" route="down2" depart="630" />
	<vehicle id="up1_227" type="typeNS" route="up1" depart="634" />
	<vehicle id="down1_228" type="typeNS" route="down1" depart="634" />
	<vehicle id="down2_229" type="typeNS" route="down2" depart="635" />
	<vehicle id="down2_230" type="typeNS" route="down2" depart="640" />
	<vehicle id="up1_231" type="typeNS" route="up1" depart="642" />
	<vehicle id="up2_232" type="typeNS" route="up2" depart="643" />
	<vehicle id="down2_233" type="typeNS" route="down2" depart="646" />
	<vehicle id="up1_234" type="typeNS" route="up1" depart="649" />
	<vehicle id="down1_235" type="typeNS" route="down1" depart="651" />
	<vehicle id="up2_236" type="typeNS" route="up2" depart="654" />
	<vehicle id="down1_237" type="typeNS" route="down1" depart="659" />
	<vehicle id="up2_238" type="typeNS" route="up2" depart="659" />
	<vehicle id="up1_239" type="typeNS" route="up1" depart="660" />
	<vehicle id="down1_240" type="typeNS" route="down1" depart="660" />
	<vehicle id="up1_241" type="typeNS" route="up1" depart="662" />
	<vehicle id="down1_242" type="typeNS" route="down1" depart="665" />
	<vehicle id="down1_243" type="typeNS" route="down1" depart="666" />
	<vehicle id="up2_244" type="typeNS" route="up2" depart="666" />
	<vehicle id="down2_245" type="typeNS" route="down2" depart="671" />
	<vehicle id="up2_246" type="typeNS" route="up2" depart="672" />
	<vehicle id="down1_247" type="typeNS" route="down1" depart="673" />
	<vehicle id="down1_248" type="typeNS" route="down1" depart="676" />
	<vehicle id="down1_249" type="typeNS" route="down1" depart="680" />
	<vehicle id="down1_250" type="typeNS" route="down1" depart="682" />
	<vehicle id="down2_251" type="typeNS" route="down2" depart="683" />
	<vehicle id="up1_252" type="typeNS" route="up1" depart="687" />
	<vehicle id="down2_253" type="typeNS" route="down2" depart="688" />
	<vehicle id="down2_254" type="typeNS" route="down2" depart="690" />
	<vehicle id="down1_255" type="typeNS" route="down1" depart="693" />
	<vehicle id="down1_256" type="typeNS" route="down1" depart="694" />
	<vehicle id="down1_257" type="typeNS" route="down1" depart="697" />
	<vehicle id="down2_258" type="typeNS" route="down2" depart="701" />
	<vehicle id="down1_259" type="typeNS" route="down1" depart="704" />
	<vehicle id="down1_260" type="typeNS" route="down1" depart="706" />
	<vehicle id="up1_261" type="typeNS" route="up1" depart="709" />
	<vehicle id="down1_262" type="typeNS" route="down1" depart="709" />
	<vehicle id="up1_263" type="typeNS" route="up1" depart="711" />
	<vehicle id="up2_264" type="typeNS" route="up2" depart="712" />
	<vehicle id="down1_265" type="typeNS" route="down1" depart="714" />
	<vehicle id="down2_266" type="typeNS" route="down2" depart="715" />
	<vehicle id="down1_267" type="typeNS" route="down1" depart="721" />
	<vehicle id="up1_268" type="typeNS" route="up1" depart="724" />
	<vehicle id="down1_269" type="typeNS" route="down1" depart="727" />
	<vehicle id="up1_270" type="typeNS" route="up1" depart="730" />
	<vehicle id="up1_271" type="typeNS" route="up1" depart="731" />
	<vehicle id="up1_272" type="typeNS" route="up1" depart="733" />
	<vehicle id="down2_273" type="typeNS" route="down2" depart="741" />
	<vehicle id="up1_274" type="typeNS" route="up1" depart="745" />
	<vehicle id="down2_275" type="typeNS" route="down2" depart="746" />
	<vehicle id="up2_276" type="typeNS" route="up2" depart="747" />
	<vehicle id="up1_277" type="typeNS" route="up1" depart="751" />
	<vehicle id="down1_278" type="typeNS" route="down1" depart="752" />
	<vehicle id="down2_279" type="typeNS" route="down2" depart="754" />
	<vehicle id="down1_280" type="typeNS" route="down1" depart="758" />
	<vehicle id="down2_281" type="typeNS" route="down2" depart="760" />
	<vehicle id="up2_282" type="typeNS" route="up2" depart="761" />
	<vehicle id="up1_283" type="typeNS" route="up1" depart="763" />
	<vehicle id="up2_284" type="typeNS" route="up2" depart="765" />
	<vehicle id="down1_285" type="typeNS" route="down1" depart="766" />
	<vehicle id="down2_286" type="typeNS" route="down2" depart="769" />
	<vehicle id="down2_287" type="typeNS" route="down2" depart="775" />
	<vehicle id="down1_288" type="typeNS" route="down1" depart="782" />
	<vehicle id="up2_289" type="typeNS" route="up2" depart="783" />
	<vehicle id="down1_290" type="typeNS" route="down1" depart="785" />
	<vehicle id="up2_291" type="typeNS" route="up2" depart="792" />
	<vehicle id="down2_292" type="typeNS" route="down2" depart="795" />
	<vehicle id="up1_293" type="typeNS" route="up1" depart="801" />
	<vehicle id="down2_294" type="typeNS" route="down2" depart="801" />
	<vehicle id="down2_295" type="typeNS" route="down2" depart="802" />
	<vehicle id="up2_296" type="typeNS" route="up2" depart="808" />
	<vehicle id="up1_297" type="typeNS" route="up1" depart="814" />
	<vehicle id="down2_298" type="typeNS" route="down2" depart="819" />
	<vehicle id="up1_299" type="typeNS" route="up1" depart="823" />
	<vehicle id="up2_300" type="typeNS" route="up2" depart="824" />
	<vehicle id="down1_301" type="typeNS" route="down1" depart="828" />
	<vehicle id="up1_302" type="typeNS" route="up1" depart="830" />
	<vehicle id="up2_303" type="typeNS" route="up2" depart="831" />
	<vehicle id="down1_304" type="typeNS" route="down1" depart="832" />
	<vehicle id="down1_305" type="typeNS" route="down1" depart="841" />
	<vehicle id="down1_306" type="typeNS" route="down1" depart="842" />
	<vehicle id="down1_307" type="typeNS" route="down1" depart="843" />
	<vehicle id="down1_308" type="typeNS" route="down1" depart="850" />
	<vehicle id="up2_309" type="typeNS" route="up2" depart="851" />
	<vehicle id="up1_310" type="typeNS" route="up1" depart="853" />
	<vehicle id="down1_311" type="typeNS" route="down1" depart="855" />
	<vehicle id="down2_312" type="typeNS" route="down2" depart="855" />
	<vehicle id="up1_313" type="typeNS" route="up1" depart="857" />
	<vehicle id="up2_314" type="typeNS" route="up2" depart="857" />
	<vehicle id="down2_315" type="typeNS" route="down2" depart="862" />
	<vehicle id="down1_316" type="typeNS" route="down1" depart="865" />
	<vehicle id="down1_317" type="typeNS" route="down1" depart="867" />
	<vehicle id="down2_318" type="typeNS" route="down2" depart="872" />
	<vehicle id="down1_319" type="typeNS" route="down1" depart="874" />
	<vehicle id="down1_320" type="typeNS" route="down1" depart="875" />
	<vehicle id="down1_321" type="typeNS" route="down1" depart="879" />
	<vehicle id="up2_322" type="typeNS" route="up2" depart="879" />
	<vehicle id="down2_323" type="typeNS" route="down2" depart="881" />
	<vehicle id="up1_324" type="typeNS" route="up1" depart="886" />
	<vehicle id="down1_325" type="typeNS" route="down1" depart="892" />
	<vehicle id="up1_326" type="typeNS" route="up1" depart="906" />
	<vehicle id="up1_327" type="typeNS" route="up1" depart="909" />
	<vehicle id="down2_328" type="typeNS" route="down2" depart="913" />
	<vehicle id="up2_329" type="typeNS" route="up2" depart="921" />
	<vehicle id="down1_330" type="typeNS" route="down1" depart="924" />
	<vehicle id="down1_331" type="typeNS" route="down1" depart="925" />
	<vehicle id="up1_332" type="typeNS" route="up1" depart="928" />
	<vehicle id="down2_333" type="typeNS" route="down2" depart="932" />
	<vehicle id="down2_334" type="typeNS" route="down2" depart="934" />
	<vehicle id="up1_335" type="typeNS" route="up1" depart="935" />
	<vehicle id="up1_336" type="typeNS" route="up1" depart="939" />
	<vehicle id="down1_337" type="typeNS" route="down1" depart="939" />
	<vehicle id="up2_338" type="typeNS" route="up2" depart="941" />
	<vehicle id="up2_339" type="typeNS" route="up2" depart="943" />
	<vehicle id="down2_340" type="typeNS" route="down2" depart="944" />
	<vehicle id="down1_341" type="typeNS" route="down1" depart="950" />
	<vehicle id="down1_342" type="typeNS" route="down1" depart="956" />
	<vehicle id="up1_343" type="typeNS" route="up1" depart="961" />
	<vehicle id="down1_344" type="typeNS" route="down1" depart="966" />
	<vehicle id="up2_345" type="typeNS" route="up2" depart="966" />
	<vehicle id="down2_346" type="typeNS" route="down2" depart="966" />
	<vehicle id="down1_347" type="typeNS" route="down1" depart="967" />
	<vehicle id="up1_348" type="typeNS" route="up1" depart="976" />
	<vehicle id="up2_349" type="typeNS" route="up2" depart="976" />
	<vehicle id="up1_350" type="typeNS" route="up1" depart="978" />
	<vehicle id="up2_351" type="typeNS" route="up2" depart="984" />
	<vehicle id="down1_352" type="typeNS" route="down1" depart="988" />
	<vehicle id="up2_353" type="typeNS" route="up2" depart="988" />
	<vehicle id="up2_354" type="typeNS" route="up2" depart="989" />
	<vehicle id="up1_355" type="typeNS" route="up1" depart="990" />
	<vehicle id="up2_356" type="typeNS" route="up2" depart="991" />
	<vehicle id="up2_357" type="typeNS" route="up2" depart="992" />
	<vehicle id="down1_358" type="typeNS" route="down1" depart="999" />
	<vehicle id="up2_359" type="typeNS" route="up2" depart="1002" />
	<vehicle id="up1_360" type="typeNS" route="up1" depart="1005" />
	<vehicle id="down1_361" type="typeNS" route="down1" depart="1008" />
	<vehicle id="down2_362" type="typeNS" route="down2" depart="1017" />
	<vehicle id="up1_363" type="typeNS" route="up1" depart="1018" />
	<vehicle id="up1_364" type="typeNS" route="up1" depart="1019" />
	<vehicle id="up2_365" type="typeNS" route="up2" depart="1019" />
	<vehicle id="down2_366" type="typeNS" route="down2" depart="1019" />
	<vehicle id="up2_367" type="typeNS" route="up2" depart="1023" />
	<vehicle id="down2_368" type="typeNS" route="down2" depart="1024" />
	<vehicle id="down1_369" type="typeNS" route="down1" depart="1025" />
	<vehicle id="up2_370" type="typeNS" route="up2" depart="1027" />
	<vehicle id="down2_371" type="typeNS" route="down2" depart="1027" />
	<vehicle id="down1_372" type="typeNS" route="down1" depart="1031" />
	<vehicle id="up2_373" type="typeNS" route="up2" depart="1035" />
	<vehicle id="up1_374" type="typeNS" route="up1" depart="1036" />
	<vehicle id="up1_375" type="typeNS" route="up1" depart="1038" />
	<vehicle id="up2_376" type="typeNS" route="up2" depart="1039" />
	<vehicle id="down2_377" type="typeNS" route="down2" depart="1045" />
	<vehicle id="up1_378" type="typeNS" route="up1" depart="1049" />
	<vehicle id="up1_379" type="typeNS" route="up1" depart="1052" />
	<vehicle id="down1_380" type="typeNS" route="down1" depart="1057" />
	<vehicle id="up2_381" type="typeNS" route="up2" depart="1062" />
	<vehicle id="up1_382" type="typeNS" route="up1" depart="1065" />
	<vehicle id="up1_383" type="typeNS" route="up1" depart="1071" />
	<vehicle id="down2_384" type="typeNS" route="down2" depart="1074" />
	<vehicle id="up1_385" type="typeNS" route="up1" depart="1076" />
	<vehicle id="down2_386" type="typeNS" route="down2" depart="1076" />
	<vehicle id="up2_387" type="typeNS" route="up2" depart="1077" />
	<vehicle id="down1_388" type="typeNS" route="down1" depart="1078" />
	<vehicle id="up1_389" type="typeNS" route="up1" depart="1081" />
	<vehicle id="up2_390" type="typeNS" route="up2" depart="1087" />
	<vehicle id="down2_391" type="typeNS" route="down2" depart="1088" />
	<vehicle id="down2_392" type="typeNS" route="down2" depart="1089" />
	<vehicle id="down2_393" type="typeNS" route="down2" depart="1090" />
	<vehicle id="down2_394" type="typeNS" route="down2" depart="1097" />
	<vehicle id="up1_395" type="typeNS" route="up1" depart="1098" />
	<vehicle id="down2_396" type="typeNS" route="down2" depart="1102" />
	<vehicle id="down1_397" type="typeNS" route="down1" depart="1103" />
	<vehicle id="down1_398" type="typeNS" route="down1" depart="1106" />
	<vehicle id="down2_399" type="typeNS" route="down2" depart="1108" />
	<vehicle id="down2_400" type="typeNS" route="down2" depart="1112" />
	<vehicle id="up1_401" type="typeNS" route="up1" depart="1113" />
	<vehicle id="down1_402" type="typeNS" route="down1" depart="1114" />
	<vehicle id="up1_403" type="typeNS" route="up1" depart="1116" />
	<vehicle id="up1_404" type="typeNS" route="up1" depart="1123" />
	<vehicle id="down1_405" type="typeNS" route="down1" depart="1124" />
	<vehicle id="down1_406" type="typeNS" route="down1" depart="1125" />
	<vehicle id="down1_407" type="typeNS" route="down1" depart="1129" />
	<vehicle id="up1_408" type="typeNS" route="up1" depart="1133" />
	<vehicle id="down1_409" type="typeNS" route="down1" depart="1134" />
	<vehicle id="down2_410" type="typeNS" route="down2" depart="1134" />
	<vehicle id="down2_411" type="typeNS" route="down2" depart="1136" />
	<vehicle id="up1_412" type="typeNS" route="up1" depart="1137" />
	<vehicle id="up1_413" type="typeNS" route="up1" depart="1138" />
	<vehicle id="down1_414" type="typeNS" route="down1" depart="1150" />
	<vehicle id="down1_415" type="typeNS" route="down1" depart="1152" />
	<vehicle id="up1_416" type="typeNS" route="up1" depart="1154" />
	<vehicle id="down2_417" type="typeNS" route="down2" depart="1157" />
	<vehicle id="up1_418" type="typeNS" route="up1" depart="1158" />
	<vehicle id="up2_419" type="typeNS" route="up2" depart="1160" />
	<vehicle id="up2_420" type="typeNS" route="up2" depart="1161" />
	<vehicle id="down2_421" type="typeNS" route="down2" depart="1162" />
	<vehicle id="down1_422" type="typeNS" route="down1" depart="1165" />
	<vehicle id="down2_423" type="typeNS" route="down2" depart="1165" />
	<vehicle id="down1_424" type="typeNS" route="down1" depart="1166" />
	<vehicle id="down1_425" type="typeNS" route="down1" depart="1169" />
	<vehicle id="down1_426" type="typeNS" route="down1" depart="1170" />
	<vehicle id="down2_427" type="typeNS" route="down2" depart="1171" />
	<vehicle id="up2_428" type="typeNS" route="up2" depart="1173" />
	<vehicle id="down1_429" type="typeNS" route="down1" depart="1175" />
	<vehicle id="up2_430" type="typeNS" route="up2" depart="1176" />
	<vehicle id="up2_431" type="typeNS" route="up2" depart="1177" />
	<vehicle id="up1_432" type="typeNS" route="up1" depart="1180" />
	<vehicle id="down2_433" type="typeNS" route="down2" depart="1180" />
	<vehicle id="up1_434" type="typeNS" route="up1" depart="1182" />